<?xml version="1.0" encoding="UTF-8"?>

<!-- generated on 2024-07-16 20:30:20.299455 by randomTrips.py UNKNOWN
<configuration>
    <net-file value="/Users/nikitazigman/code/jku_its/h2mob/sumo/linz.net.xml"/>
    <additional-files value="/Users/nikitazigman/code/jku_its/h2mob/sumo/scenario_generator/vehicle_types.xml"/>
    <output-trip-file value="/Users/nikitazigman/code/jku_its/h2mob/sumo/scenarios/linz/trips.trips.xml"/>
    <route-file value="/Users/nikitazigman/code/jku_its/h2mob/sumo/scenarios/linz/routes.rou.xml"/>
    <prefix value="vehicle"/>
    <trip-attributes value="type='/Users/nikitazigman/code/jku_its/h2mob/sumo/scenario_generator/vehicle_types.xml'"/>
    <random value="True"/>
    <min-distance value="1500.0"/>
    <max-distance value="30000.0"/>
    <validate value="True"/>
    <verbose value="True"/>
    <end value="86400.0"/>
    <period value="360000.0 360000.0 360000.0 360000.0 360000.0 360000.0 180000.0 90000.0 60000.0 60000.0 72000.0 72000.0 72000.0 72000.0 60000.0 60000.0 60000.0 60000.0 60000.0 51428.57 51428.57 72000.0 90000.0 120000.0"/>
</configuration>
-->

<!-- generated on 2024-07-16 20:30:20 by Eclipse SUMO duarouter Version 1.20.0
<configuration xmlns:xsi="http://www.w3.org/2001/XMLSchema-instance" xsi:noNamespaceSchemaLocation="http://sumo.dlr.de/xsd/duarouterConfiguration.xsd">

    <input>
        <net-file value="/Users/nikitazigman/code/jku_its/h2mob/sumo/linz.net.xml"/>
        <additional-files value="/Users/nikitazigman/code/jku_its/h2mob/sumo/scenario_generator/vehicle_types.xml"/>
        <route-files value="/Users/nikitazigman/code/jku_its/h2mob/sumo/scenarios/linz/trips.trips.xml"/>
    </input>

    <output>
        <output-file value="/Users/nikitazigman/code/jku_its/h2mob/sumo/scenarios/linz/routes.rou.xml"/>
        <alternatives-output value="NUL"/>
    </output>

    <time>
        <begin value="0.0"/>
        <end value="86400.0"/>
    </time>

    <report>
        <verbose value="true"/>
        <ignore-errors value="true"/>
        <no-step-log value="true"/>
    </report>

</configuration>
-->

<routes xmlns:xsi="http://www.w3.org/2001/XMLSchema-instance" xsi:noNamespaceSchemaLocation="http://sumo.dlr.de/xsd/routes_file.xsd">
    <vehicle id="vehicle0" type="/Users/nikitazigman/code/jku_its/h2mob/sumo/scenario_generator/vehicle_types.xml" depart="0.00">
        <route edges="304112689 304112689#1 304110774#1 304113616#1 304110184#1 304082368#1 304082654 304112912 304183815 304031424 304012588 304012589 461010966 461011029 461011028 461012656 461012655 461012651 461001050 461001051 461001048 461001049 461001070 461006360 461006359 461001061 461003487 461012476 461012475 461000546 461017415 461017416 461007316 304213314 304033013 304030260 304030261 304030262 304030263 304030264#1 304030265#1 304030257 304030258#1 304181783#1"/>
    </vehicle>
    <vehicle id="vehicle1" type="/Users/nikitazigman/code/jku_its/h2mob/sumo/scenario_generator/vehicle_types.xml" depart="3600.00">
        <route edges="304117550#1 304116218#1 304163425#1 304163460#1 304165294 304181002#1 304029746 304029748 304029752 304030839 304030840 304029753 304029756 304267874 304267873#1 304029459 304029458 304214350 304214349#1 304234510 304258442 304213185 304213184#1 304029449 304029443 304029440 304029441#1 304029434 304029430 304272920 304272919#1 304241170 304241171 304031576 304031577 304031575 304031571 304031755 304031568 304031569 304030565 304022969 304022970 304022971 304029847 304029848 304029846 304031534 304239639 304239640 304239643 304239644 304031527 304031528 304031529 304031526 304031525 304029944 304029945 304029946 304029947 304027026 304027027 304027028 304027029 304264054 461012642 461012641 461001019 461001025 461004979 2041555159 461001037 461003713 461001026 461001024 461001023 461001016 461012674 461012673 461012677 461012678 304213472 304184251 304175894 304099140 304109426 304272545 304216302 304216303 304011336 304011338 304000915 304000916 304000917 304000918 304000919 304010721 304012552 304012752 304012751 304012554 304010511 304018216 304018215 304225082 304225084 304225085 304018190 304272800 304272799#1 304085445 304157909 304226598 304226597#1 304164817#1 304086219#1 304085592 304116986 304116986#1"/>
    </vehicle>
    <vehicle id="vehicle2" type="/Users/nikitazigman/code/jku_its/h2mob/sumo/scenario_generator/vehicle_types.xml" depart="7200.00">
        <route edges="304082722#1 304082722 2041891230 2041891232 2041891231#1 304080420 304081158 304083993#1 304083992 304081824 304171954 304172904 304082710 304158610 304161845 304161844 304159119 2041890941 2041890940 304161842 304158606 304109524 304112886 2041556513 304084026 2041890822 2041890821#1 2041600566 2041600567#1 304082660 304214235 304221222 304221223 304221224 304221225 304221226 304221227 2041891054 2041891053 304264043 461003952 461003898 461001053 461004119 461011253 461012659 461012660 304227100 304010786 304015361 304011012 304011013 304011014 304031431 304031759 304031760#1 304031432 2041890202 2041890203 304031476 304031477 304031478#1 304031479#1 304031480#1 304031481#1 304031482 304031483 304031484#1 304011821 304011556 304222934 304222935 304011553 304030059 304030061 304030062 304030063 304030064 304030065 304030066 304030067 304030068 304030069 304030070 304030071#1 304030072 304030073#1 304222902 304222903 304239466 304239467#1 304030077 304030078 304210556 304210557 304030081 304030082#1 304030097 304221805 304221806#1 304030098#1 304030083 304030084 304030085#1 304030086 304030087 304030088 304030093 304030092#1 304030089 304030090#1 304239464 304239465#1 304029908#1 304242031 304242032#1 304181181#1 304107217 304110033 304170270 304181180"/>
    </vehicle>
    <vehicle id="vehicle3" type="/Users/nikitazigman/code/jku_its/h2mob/sumo/scenario_generator/vehicle_types.xml" depart="10800.00">
        <route edges="304081562#1 304079766 304083148 304081197 304081566#1 304081195#1 304081192#1 304083146#1 304272557#1 304272556 304272555#1 304272554 304272553#1 304272552 304272551 304272550 304272549#1 304013807 304013806 304221220 304221221 304214240 304214235 304221222 304221223 304221224 304221225 304221226 304033024 304033025 304033026 304033027 461010968 461005287 461012665 461012666 461001016 461001015 461001022 461001021 461008636 461001039 461012031 2041567480 2041567477 2041567484 461002951 461004587 304264064 304001169 2041890883 2041890884 304216898 304226520 304226521 304226519 304216900 304227062 304227063 304216902 304216903 2041567618#1 304175909 304079088 304082575 304081298#1 304079896 304083628 304084584 304084585#1 304084174 304084586#1 304084587 304084593#1 304083346 304084592 304105359#1 304168453#1 304169312 304104304#1 304168222#1 304168982 304173695 304173694 304173693#1 304173691#1 304173688#1 304173687 304173686#1 304173684#1 304227183 304227184#1 304019400#1 304019401#1 304019402#1 304019403#1 304019404#1 304019405#1 304019406#1 304019407#1 304019408 304019409#1 304019410#1 304019411#1"/>
    </vehicle>
    <vehicle id="vehicle4" type="/Users/nikitazigman/code/jku_its/h2mob/sumo/scenario_generator/vehicle_types.xml" depart="14400.00">
        <route edges="304103645#1 304165250#1 304163385 304107899 304165248 304163384 304111553#1 304107900 304111552 304163382#1 304163383 304107945#1 304109026 304109027#1 304153324#1 304078655#1 304078653 304029512 304223164 304223165 304029507 304180771 304163389#1 304163388 304165258#1 304165257 304107962#1 304165256 304175866#1 304029847 304029848 304029846 304031534 304239639 304239640 304239643 304239644 304031527 304031528 304031529 304031526 304031525 304029944 304029945 304029946 304029947 304027026 304027027 304027028 304027029 304264054 461012642 461012641 461001019 461001025 461004979 2041555159 461012654 461012653 461003640 461005259 461005260 461010967 304031429 304031428 304031425 304031426 304031427 304031421 304031420#1 304031419#1 304224395 304224396 2041556516 2041556517#1 304210600 304227798 304227799 304227804 304227805 304031404 304031405 304031406 304031407 304031402 304031401 304031400#1 304031399 304031398 304031397#1 304031396#1 304031395 304031394#1 304031393#1 304031392 304031391 304031390#1 304031389#1 304031388#1 304031387 304031386#1 304031385 2041890864 2041890865#1 304031383#1 304227787 304228251 304227788#1 304242023 304242024 2041567614 2041567615#1 2041889986 2041889985#1 304223011 304273114#1 304012538 304001173 2041891099 2041891100 304216500 304223012 304223013 304025784 304025785#1 304025786 304025787 304025788#1 304025789 304025790#1 304025791#1 304025779 304025780#1 304025781 304025782 304025783#1 304225868 2041600611 2041600612 2041600610 304016302 304020490 304020491 304020492 304020493 304020494 304020495 304019257 304019258 304019259 304019260 304019261 304019262 304019254 304019255#1 304019256#1 304019253#1 304019252#1 304019250 304019251#1 304019245 304019246 304072564 304072565#1 304089077 304125624 304125625 304127858#1"/>
    </vehicle>
    <vehicle id="vehicle5" type="/Users/nikitazigman/code/jku_its/h2mob/sumo/scenario_generator/vehicle_types.xml" depart="18000.00">
        <route edges="304083946 304083946#1 304081399#1 304079517#1 304080460 304083188 304082526#1 304081816#1 304084336#1 304080243 304080577#1 304080079#1 304211242 304211243 2041600571 2041600570#1 304211168 304211169 304079066 304084004 304083619 304084005#1 304082086 304080848#1 304184062 304226344 304226345 304184078 304027027 304027028 304027029 304264149 304252728 304252724 304252720 304013488 304027025 304027024 304272558 304272557#1 304079409 304082180 304081617#1 304109425 304109418#1 304080247#1 304082502 304080421#1 304082891 304080865#1"/>
    </vehicle>
    <vehicle id="vehicle6" type="/Users/nikitazigman/code/jku_its/h2mob/sumo/scenario_generator/vehicle_types.xml" depart="21600.00">
        <route edges="304233915 304233915#1 304109122 304106909#1 304106419 304233793#1 304076258#1 304076257#1 304076120#1 304076121#1 304033278 304072237 304071693 304071255#1 304069614 304069615#1 304032270 304032271#1 304032272#1 304032273#1 304227928 304227930 304227931#1 304228267 304016274 304171716 304082007 304109551 304109585 304082710 304158610 304161845 304161844 304159119 2041890941 2041890940 304161842 304158606 304109524 304112886 304175999 304184252 304264004 461012682 461012681 461002615 461001022 461001021 461008636 461001039 461012031 2041567480 2041567477 2041567483 461017374 461001043 461001028 2041890879 2041890881 2041890882 2041889951 461019460 461019461 2041890785 2041890786 461012720 461012719 304264038 304033112 304024693 304018259 304210274 304210275 304173047 304172771#1 304108640#1 304108609#1 304171522 304111996#1 304108513#1 304108520#1 304108510#1 304111994 304111995#1 304108512#1 304108511#1 304111993 304174907#1 304108519#1 304184142 304170150#1 304172677 304170151 304168221#1 304168977 304159703#1 304104088 304103971#1 304054444"/>
    </vehicle>
    <vehicle id="vehicle7" type="/Users/nikitazigman/code/jku_its/h2mob/sumo/scenario_generator/vehicle_types.xml" depart="25200.00">
        <route edges="304030228 304181817 304109905#1 304109906#1 304106755#1 304106756 304106757 304106758 304106759 304107076 304106760#1 304109904 304106761#1 304165720#1 304165819 304165505 304165504 304165669 304165735 304106594 304166716 304163328#1 304165203 304109248 304106992 304106991 304106990 304109249 304109247 304181783 304030258 304030257#1 304030265 304030264 304030263#1 304030262#1 304030261#1 304030260#1 304030123#1 304030121 304030120#1 304030119#1 304030118#1 304030117#1 304030116#1 304030115 304030114#1 304030113#1 304030112#1 304030111#1 304030110 304030109#1 304030108#1 304030107#1 304030106#1 304030105 304030104#1 304030103#1 304030102#1 304030101#1 304030100#1 304031748 304031747#1 304031746#1 304031745 304031744#1 304031743#1 304031742 304031741#1 304015997#1 304016007 304016006 304016005#1 304016004#1 304016003 304016002#1 2041891171 2041891172#1 304016000#1 304015999#1 304015998#1 304025770 304025769#1 304025768#1 2041891209 2041891208#1 2041890794 2041890793#1 304031586 304031585#1 304010812 304010813 304031456 304227931 304227930#1 304227928#1 304032273 304081646 304079481 2041890841 2041890842#1 2041890845 2041890844#1 2041890835 2041890836#1"/>
    </vehicle>
    <vehicle id="vehicle8" type="/Users/nikitazigman/code/jku_its/h2mob/sumo/scenario_generator/vehicle_types.xml" depart="28800.00">
        <route edges="304021474#1 304019681 304019681#1 304021474 304021473#1 304021472 304021471 304021470#1 304021469#1 2041889966 2041889967 2041889947#1 304021466 304021465#1 304021464#1 2041600515 2041600514#1 304021462#1 304021461 2041556510 2041556511#1 304021459 304021458#1 304021457#1 304005585 304005586 304033082 304213466 461004837 461005110 461017367 461017368 461017364 461005499 2041567485 2041567486 461001057 461012058 2041567482 461001056 461001046 461001047 461001052 461001064 461001060 461001063 461001053 461001068 461001050 461001051 461001048 461012643 461012644 304213312 304259114 304024993 304024994 304024995 304234746#1 304226342 304226343 304080545 304081009 304079199 304081866 304080580#1"/>
    </vehicle>
    <vehicle id="vehicle9" type="/Users/nikitazigman/code/jku_its/h2mob/sumo/scenario_generator/vehicle_types.xml" depart="32400.00">
        <route edges="304113531 304226662 304226663 304226955#1 304010513 304010444 304010445 304010446 304010515 304018186 304018188 304272798 304272799 304272800#1 304216643 304216644 304019086 304272627 304019087 304012528 304018220 304018219 304018218 304018217 304010761 304012553 304012750 304012753 304012549 304010720 304000921 304225541 304225542 304000915 304000916 304000917 304102360 304084413 304079741 304081246 304081547 304084178#1 304079998 304084177 304080495#1 304184042 304083610 304211262 304211263 304082779#1 304080688#1 304079462#1 304080616 2041890956 2041890955#1 2041890953#1 2041890951#1 2041890949#1 2041890947#1 2041890945#1 304080605#1 304083232 304084764 304211238 304211239 304080052#1 304081322 304080053 304211240 304211241 304184041#1 304084738#1 304081320#1 304080015#1 304078937 304083043 304079843#1 304079226 304079980 304079962#1 304079504#1 304079504"/>
    </vehicle>
    <vehicle id="vehicle10" type="/Users/nikitazigman/code/jku_its/h2mob/sumo/scenario_generator/vehicle_types.xml" depart="36000.00">
        <route edges="304037096 304088044 304088044#1 304037096#1 304168453 304105359 304084592#1 304083346#1 304084593 304084587#1 304084586 304084174#1 304084585 304084584#1 304083628#1 304079896#1 304081298 304082575#1 304079088#1 304176249 304217386 2041556549 2041556550 304217388 304217389 304226522 304226523 304214226 304217391 2041600503 2041600504 304026143 304213262 461002230 2041567488 2041567489 461017379 461017380 461001057 461012058 2041567482 461001056 461001046 461001047 461001052 461001064 461001060 461012667 461012668 2041556419 2041556420 304213255 304184240 304176006 304079099 304082770 304083678 304081266 304079869 304080342 304099138 304109420 304109427 304083961 304184045 304109402 304109403 304080896 304081068 304234938 304234939 304031465 2041556514 2041556515#1 304031463 304031462 304031461#1 304031460#1 304031474 304031473#1 304031472 304031471#1 2041890857 2041890856#1 304082876 2041600553 2041600552#1 304112617 304109415#1 304109415"/>
    </vehicle>
    <vehicle id="vehicle11" type="/Users/nikitazigman/code/jku_its/h2mob/sumo/scenario_generator/vehicle_types.xml" depart="39600.00">
        <route edges="304111026#1 304111010#1 304111004 304111012#1 304082894#1 304080184 304081587#1 304082795 304080707#1 304080185 304082232 304084186#1 304079541#1 2041890711 2041890710#1 304031435 304031436 304031760 304031759#1 304031430 304024684 304002912 304002913 304184047 304184046 304081678 304080638#1 304084333 304083556 304083557 304079427 304079995 304081464 304081883#1 304080069 304084200 304083416"/>
    </vehicle>
    <vehicle id="vehicle12" type="/Users/nikitazigman/code/jku_its/h2mob/sumo/scenario_generator/vehicle_types.xml" depart="43200.00">
        <route edges="304079764#1 304081568 304079766 304083148 304081197 304081566#1 304081195#1 304081192#1 304083146#1 304272557#1 304272556 304272555#1 304272554 304272553#1 304272552 304272551 304272550 304272549#1 304013807 304013806 304221220 304221221 304214240 304214235 304221222 304221223 304221224 304221225 304221226 304033024 304033025 304033026 304033027 461010968 461005287 461012665 461012666 461001016 461001015 461001022 461001021 461008636 461001039 461012031 2041567480 2041567477 2041567483 461017374 461001043 461001028 2041890879 2041890881 2041890882 2041889951 461019460 461019461 2041890785 2041890786 461012720 461012719 304264038 304033112 304024693 304018259 304210274 304210275 304018262 304237048 304237049 304237050 304237051#1 304272628 304272629#1 304272630#1 304272610#1 304224155 304224156 304272626 304019081 304000983 304032799 304032800 304018268 304018319 304018320 304018321 304018322 304018323#1 304018324#1 304013364 304025995 304025990 304025991#1 304025992 304025993 304025994#1 304018317 304018318 304001146 304001147 304018313 304019549 304038764 304038765#1 304236937 304237075#1 304038768#1 304038769 304038770#1 304236933 304237086#1 304170675#1 304110887#1 304107806#1 304107620 304107616#1"/>
    </vehicle>
    <vehicle id="vehicle13" type="/Users/nikitazigman/code/jku_its/h2mob/sumo/scenario_generator/vehicle_types.xml" depart="46800.00">
        <route edges="304028058 304028058#1 304028059 304028060#1 304028061#1 304028525 304028526#1 304028062 304028063 304028064#1 304243968 304243969#1 304244353 2041890878 2041890877#1 304028068 304028069#1 304032265 304032266#1 304032267#1 304032268 304032269#1 304032270 304032271#1 304032272#1 304032273#1 304227928 304227930 304227931#1 304228267 304016274 304171716 304082007 304109551 304109585 304082710 304158610 304161845 304161844 304159119 2041890941 2041890940 304161842 304158606 304109524 304112886 304175999 304176000 304175895 304175894 304099140 304109426 304272545 304216302 304216303 304011336 304011338 304000915 304000916 304000917 304000918 304000919 304010721 304012552 304012752 304012751 304012554 304010511 304018216 304018215 304012527 304018214 304012529 304019088 304272627#1 304019091 304019092 304018198 304018197#1 304018196 304018195#1 304018194 304018193#1 304018212 304018211#1 304018210 304018209#1 304018208#1 304018207 304018206 304236047 304236046#1 304018204#1 304018203#1 304018202 304083075 304081279 304083227#1 304084481"/>
    </vehicle>
    <vehicle id="vehicle14" type="/Users/nikitazigman/code/jku_its/h2mob/sumo/scenario_generator/vehicle_types.xml" depart="50400.00">
        <route edges="304080978 304084706 304078864 304227790 304227791 304082009 304183804 304183805 304227802 304227803 304227808 304227809 304224394 2041556517 2041556516#1 304031416 304031417 304031419 304031420 304031421#1 304031422 304031423 304031424 304012588 304012589 461010966 461011029 461010949 304223018 304223019 304223017 304015364 304011014 304031431 304031759 304031760#1 304031432 2041890202 2041890203 304031476 2041891212 2041891213 304031489 304031493 304031494 304031501 304031507 304031508 304031512 304031513 304031514 304031520 304031522 304227810 304227812 304227813 304025747 304217759 304217760 304217761#1 304217762#1 304029935 304029936 304029938 304029939#1 304030850 304228648 304228649#1 304030852#1 304030853#1 304030854 304030855#1 304030856#1 304030857#1 304223218 304223219#1 304030859#1 304030847 304030848 304030849#1 304031566 304031572 304031570 304029428 304029419 304029420#1 304029421#1 304029422#1 304029423#1 304029424#1 304029425#1 304029426#1 304029409"/>
    </vehicle>
    <vehicle id="vehicle15" type="/Users/nikitazigman/code/jku_its/h2mob/sumo/scenario_generator/vehicle_types.xml" depart="54000.00">
        <route edges="304106282 304109034 304106825#1 304106283#1 304109039 304109037#1 304109038 304159676 304179739 304028702#1 304028703#1 304222221 304222222#1 304028697 304028698#1 304028048#1 304028045 304028046#1 304028047#1 304222884 304222885 304236065 304236066#1 304028041 304024534 304011467 304011464 304011468 304028052 304028054 304028055#1 304028057 304028058#1 304028059 304028060#1 304028061#1 304028525 304028526#1 304028062 304028063 304028064#1 304243968 304243969#1 304244353 2041890878 2041890877#1 304028068 304028069#1 304032265 304032266#1 304032267#1 304032268 304032269#1 304032270 304032271#1 304032272#1 304032273#1 304227928 304227930 304227931#1 304228267 304016274 304171716 304082007 304109551 304109585 304082710 304158610 304161845 304161844 304159119 2041890941 2041890940 304161842 304158606 304109524 304112886 304175999 304184252 304264004 461012682 461012681 461002615 461001022 461001021 461008636 461001039 461012031 2041567480 2041567477 2041567483 461017374 461001043 461001028 2041890879 2041890881 2041890882 2041889951 461019460 461019461 2041890785 2041890786 461012720 461012719 304264038 304033112 304024693 304018259 304210274 304210275 304173047 304172771#1 304108640#1 304108609#1 304171522 304111996#1 304108513#1 304108520#1 304108510#1 304111994 304111995#1 304108512#1 304108511#1 304111993 304174907#1 304108519#1 304184142 304170150#1 304051951"/>
    </vehicle>
    <vehicle id="vehicle16" type="/Users/nikitazigman/code/jku_its/h2mob/sumo/scenario_generator/vehicle_types.xml" depart="57600.00">
        <route edges="304019519#1 304019539 304019538#1 304019537 304019536#1 304019436 304019435#1 304019434 304019433#1 304020522 304020521 304020520#1 304020519#1 304020518 304020517 304020516#1 304020515 304020514 304020513#1 304019279 304019278#1 304019277#1 304019276 304019275#1 304222846 304222847 304019272 304019271 304019270#1 304019518 304019517#1 304019516 304019515#1 304019514#1 304019513 304019512 304019511#1 304019510 304019509#1 304019508#1 304019507 304019506 304019505#1 304019504#1 304019269 304019268 304019267#1 304019266#1 304019489 304019488#1 304019487 304019486#1 304019485 304019484#1 304019483 304019482#1 2041890969 2041890968#1 304236780 304236779#1 304016296#1 304016295#1 304016294 304016293 304016292#1 304025791 304025790 304025789#1 304025788 304025787#1 304025786#1 304025785 304025784#1 304016289 304216501 304216502 304216503 304001174 304012537 2041889985 2041889986#1 2041567615 2041567614#1 2041891104 2041891105 304025704 304227788 304227789#1 304227784 304227787#1 304031383 2041890865 2041890864#1 304031385#1 304031386 304031387#1 304031388 304031389 304031390 304031391#1 304031392#1 304031393 304031394 304031395#1 304031396 304031397 304031398#1 304031399#1 304031400 304031401#1 304031402#1 304031408 304227802 304227803 304227808 304227809 304224394 2041556517 2041556516#1 304031416 304031417 304031419 304031420 304031421#1 304031422 304031423 304031424 304012588 304012589 461010966 461011029 461010949 304223018 304223019 304223017 304015364 304011014 304031431 304031759 304031760#1 304031432 2041890202 2041890203 304031476 2041891212 2041891213 304031489 304031493 304031494 304031501 304031507 304031508 304031512 304031513 304031514 304031520 304184060 304110949 304110949#1 304184060#1"/>
    </vehicle>
    <vehicle id="vehicle17" type="/Users/nikitazigman/code/jku_its/h2mob/sumo/scenario_generator/vehicle_types.xml" depart="61200.00">
        <route edges="304112744 304228303 304228303#1 304112744#1 304081242#1 304080385 304084379 304082372#1 304080384 2041891170#1 304016328 304016329 304033088 304213449 461004581 461028388 2041567477 2041567483 461017374 461001043 461001028 2041890879 2041890881 2041890882 2041889951 461017349 461017350 461005080 461004405 304264056 304033084 304272703 304272704#1 304210278 304210279 304272697 304272700 304272698 304272699#1 304272841 304272842#1 304272843#1 304272844#1 304272830 304272831#1 304272832 304084993#1 304036856 304054389 304054389#1 304036856#1"/>
    </vehicle>
    <vehicle id="vehicle18" type="/Users/nikitazigman/code/jku_its/h2mob/sumo/scenario_generator/vehicle_types.xml" depart="64800.00">
        <route edges="304108032#1 304108032 304108036 304108033#1 304108022#1 304165257 304107962#1 304165256 304175866#1 304029847 304029848 304029846 304031534 304239639 304239640 304239643 304239644 304031527 304031528 304031529 304031526 304031525 304029944 304029945 304029946 304029947 304226342 304226343 304082465 304081010#1 304081012 304082088#1 304080076 304081326 304079445#1 304081915 304082679#1 304079108 304080679 304083943 304081567 304083149#1 304080174#1 304082202#1 304079620#1 304081897#1 304079029#1 2041600547 2041600548#1 304080070#1 304081435#1 304079442#1 304080602#1 304079024#1 304080938 304084428 304082176 304083641 304083642 304084956#1 304080855 304080731#1 304080683#1 304031466#1 2041600538 2041600537#1 304013043#1 304013042 2041890738 2041890737#1 304013040#1 304012559#1 304025767 304025766#1 304025765 304025764#1 304025770 304025769#1 304025768#1 2041891209 2041891208#1 2041890794 2041890793#1 304031586 304031585#1 304010812 304010813 304031456 304227931 304227930#1 304227928#1 304032273 304081646 304079481 2041890841 2041890842#1 2041890845 2041890844#1 304109504 304109503#1 304082847#1 304079169#1 304081582 304081796#1 304080933 304082761#1 2041890825 2041890824#1 2041890824"/>
    </vehicle>
    <vehicle id="vehicle19" type="/Users/nikitazigman/code/jku_its/h2mob/sumo/scenario_generator/vehicle_types.xml" depart="68400.00">
        <route edges="304111256#1 304114513#1 304111254 304166027#1 304102428 304011647 304030010 304030004 304030005#1 304030006#1 304030007#1 304030008#1 304030009#1 304029995 304029996#1 304029997#1 304029998#1 304029999#1 304030000#1 304030001#1 304030002#1 304030027 304030028 304030029 304030030 304030031 304030032 304030033 304030034 304030035 304030036 304030037 304030038 304030039 304030040 304181423#1 304181449 304030083#1 304030098 304030094 304030096#1 304029887#1 304224363 304224364 304029877 304029878#1 304029879#1 304029880 304029881#1 304029882#1 304029883 304029884#1 304011803 304011482 304221783 304222982 304222983 304011809 304029861 304029862 304029863 304029864#1 304029865 304029866 304029867#1 304029868 304029869 304029870#1 304224361 304224362 304029873 304029874#1 304233891#1 304029555 304029556#1 304029557#1 304029809 304210544 304210545 304029806#1 304029806 304224359 304224360"/>
    </vehicle>
    <vehicle id="vehicle20" type="/Users/nikitazigman/code/jku_its/h2mob/sumo/scenario_generator/vehicle_types.xml" depart="72000.00">
        <route edges="304081310 304082558#1 304080670 461010953 461012665 461012666 461001016 461012674 461012673 2041567526 2041567527 304213471 304184253 304176001 304084957 304112887 2041891210 2041891211 304079092 304083634 2041891080 2041891079 304084951 304172003#1 304084952#1 304081763#1 304082833#1 304080752#1 304179905 304165430 304166629 304165860 304084950 304109522 304109522#1"/>
    </vehicle>
    <vehicle id="vehicle21" type="/Users/nikitazigman/code/jku_its/h2mob/sumo/scenario_generator/vehicle_types.xml" depart="75600.00">
        <route edges="304029671 304029671#1 304029677 304029678 304029993 304029994#1 2041600535 2041600536#1 304016304#1 2041600606 2041600605#1 2041600608 2041600607#1 304239127#1 304227789 304227788#1 304025704#1 304026006#1 304026005#1 304016306#1 304026007 304256275 304256274#1 304018494 304025706 304025705#1 304016318 304082360 304080711 304081741 304080366 304084143 304080264 304080260 304080217 304079840 304079161 304079160 304080796 304079961 304081153 304083044#1 304081035 304082036#1 304081220 304081320 304084738 304184041 304184036 304080053#1 304211202 304211203 304080052 304228174 304084764#1 304083232#1 304080605 2041890945 2041890947 2041890949 2041890951 2041890953 2041890955 2041890956#1 304080616#1 304079462 304080688 304082779 304184043 304083610#1 304184042#1 304080495 304084177#1 304079998#1 304084178 304081547#1 304081246#1 304160595 304160596 304082244 304000919 304000920 304000921 304010719 304010785 304214846 2041567543 2041567544 304001176 2041567528 2041567529 304099661 304176002 304176001 304084957 304112887 2041891210 2041891211 304112926 304112927 2041890937 2041890938 304158608 304159118 304158609 304161843 304103229 304083605 304109398 304171952 304253947 304253946 304253215 304010754 304031456 304227931 304227930#1 304227928#1 304032273 304032272 304032271 304032270#1 304032269 304032268#1 304032267 304032266 304032265#1 304028069 304083207 304240489 304240685"/>
    </vehicle>
    <vehicle id="vehicle22" type="/Users/nikitazigman/code/jku_its/h2mob/sumo/scenario_generator/vehicle_types.xml" depart="79200.00">
        <route edges="304109983#1 304107114#1 304167227 304176926 304166936#1 304157053#1 304181768 304030225#1 304013493#1 304228634 304181742#1 304030184#1 304213519 461012481 461012482 461000635 461004986 461004985 461012473 461012474 461001014 461002239 461019654 461019458 461019459 461006351 461006352 461001036 461001020 461001019 461001025 461004979 2041555159 461012654 461012653 461003640 461005259 461005260 461010967 304031429 304031428 304031425 304031426 304031427 304031421 304031420#1 304031419#1 304224395 304224396 2041556516 2041556517#1 304210600 304227798 304227799 304227804 304227805 304031404 304031405 304031406 304031407 304031402 304031401 304031400#1 304031399 304031398 304031397#1 304031396#1 304031395 304031394#1 304031393#1 304031392 304031391 304031390#1 304031389#1 304031388#1 304031387 304031386#1 304031385 2041890864 2041890865#1 304031383#1 304227787 304228251 304227788#1 304242023 304242024 2041567614 2041567615#1 2041889986 2041889985#1 304223011 304273114#1 304012538 304001173 2041891099 2041891100 304216500 304081225 304082961 304084457#1 304082838#1 304080758 304080902#1 304079291 304080885"/>
    </vehicle>
    <vehicle id="vehicle23" type="/Users/nikitazigman/code/jku_its/h2mob/sumo/scenario_generator/vehicle_types.xml" depart="82800.00">