<?xml version="1.0" encoding="UTF-8"?>

<!-- generated on 2024-07-16 20:30:23.020239 by randomTrips.py UNKNOWN
<configuration>
    <net-file value="/Users/nikitazigman/code/jku_its/h2mob/sumo/linz.net.xml"/>
    <additional-files value="/Users/nikitazigman/code/jku_its/h2mob/sumo/scenario_generator/vehicle_types.xml"/>
    <output-trip-file value="/Users/nikitazigman/code/jku_its/h2mob/sumo/scenarios/linz/trips.trips.xml"/>
    <route-file value="/Users/nikitazigman/code/jku_its/h2mob/sumo/scenarios/linz/routes.rou.xml"/>
    <prefix value="vehicle"/>
    <trip-attributes value="type='/Users/nikitazigman/code/jku_its/h2mob/sumo/scenario_generator/vehicle_types.xml'"/>
    <random value="True"/>
    <min-distance value="1500.0"/>
    <max-distance value="30000.0"/>
    <validate value="True"/>
    <verbose value="True"/>
    <end value="86400.0"/>
    <period value="360000.0 360000.0 360000.0 360000.0 360000.0 360000.0 180000.0 90000.0 60000.0 60000.0 72000.0 72000.0 72000.0 72000.0 60000.0 60000.0 60000.0 60000.0 60000.0 51428.57 51428.57 72000.0 90000.0 120000.0"/>
</configuration>
-->

<!-- generated on 2024-07-16 20:30:22 by Eclipse SUMO duarouter Version 1.20.0
<configuration xmlns:xsi="http://www.w3.org/2001/XMLSchema-instance" xsi:noNamespaceSchemaLocation="http://sumo.dlr.de/xsd/duarouterConfiguration.xsd">

    <input>
        <net-file value="/Users/nikitazigman/code/jku_its/h2mob/sumo/linz.net.xml"/>
        <additional-files value="/Users/nikitazigman/code/jku_its/h2mob/sumo/scenario_generator/vehicle_types.xml"/>
        <route-files value="/Users/nikitazigman/code/jku_its/h2mob/sumo/scenarios/linz/trips.trips.xml"/>
    </input>

    <output>
        <output-file value="/Users/nikitazigman/code/jku_its/h2mob/sumo/scenarios/linz/trips.trips.xml.tmp"/>
        <alternatives-output value="NUL"/>
        <write-trips value="true"/>
    </output>

    <time>
        <begin value="0.0"/>
        <end value="86400.0"/>
    </time>

    <report>
        <verbose value="true"/>
        <ignore-errors value="true"/>
        <no-step-log value="true"/>
    </report>

</configuration>
-->

<routes xmlns:xsi="http://www.w3.org/2001/XMLSchema-instance" xsi:noNamespaceSchemaLocation="http://sumo.dlr.de/xsd/routes_file.xsd">
    <trip id="vehicle0" type="/Users/nikitazigman/code/jku_its/h2mob/sumo/scenario_generator/vehicle_types.xml" depart="0.00" from="304112689" to="304181783#1"/>
    <trip id="vehicle1" type="/Users/nikitazigman/code/jku_its/h2mob/sumo/scenario_generator/vehicle_types.xml" depart="3600.00" from="304117550#1" to="304116986#1"/>
    <trip id="vehicle2" type="/Users/nikitazigman/code/jku_its/h2mob/sumo/scenario_generator/vehicle_types.xml" depart="7200.00" from="304082722#1" to="304181180"/>
    <trip id="vehicle3" type="/Users/nikitazigman/code/jku_its/h2mob/sumo/scenario_generator/vehicle_types.xml" depart="10800.00" from="304081562#1" to="304019411#1"/>
    <trip id="vehicle4" type="/Users/nikitazigman/code/jku_its/h2mob/sumo/scenario_generator/vehicle_types.xml" depart="14400.00" from="304103645#1" to="304127858#1"/>
    <trip id="vehicle5" type="/Users/nikitazigman/code/jku_its/h2mob/sumo/scenario_generator/vehicle_types.xml" depart="18000.00" from="304083946" to="304080865#1"/>
    <trip id="vehicle6" type="/Users/nikitazigman/code/jku_its/h2mob/sumo/scenario_generator/vehicle_types.xml" depart="21600.00" from="304233915" to="304054444"/>
    <trip id="vehicle7" type="/Users/nikitazigman/code/jku_its/h2mob/sumo/scenario_generator/vehicle_types.xml" depart="25200.00" from="304030228" to="2041890836#1"/>
    <trip id="vehicle8" type="/Users/nikitazigman/code/jku_its/h2mob/sumo/scenario_generator/vehicle_types.xml" depart="28800.00" from="304021474#1" to="304080580#1"/>
    <trip id="vehicle9" type="/Users/nikitazigman/code/jku_its/h2mob/sumo/scenario_generator/vehicle_types.xml" depart="32400.00" from="304113531" to="304079504"/>
    <trip id="vehicle10" type="/Users/nikitazigman/code/jku_its/h2mob/sumo/scenario_generator/vehicle_types.xml" depart="36000.00" from="304037096" to="304109415"/>
    <trip id="vehicle11" type="/Users/nikitazigman/code/jku_its/h2mob/sumo/scenario_generator/vehicle_types.xml" depart="39600.00" from="304111026#1" to="304083416"/>
    <trip id="vehicle12" type="/Users/nikitazigman/code/jku_its/h2mob/sumo/scenario_generator/vehicle_types.xml" depart="43200.00" from="304079764#1" to="304107616#1"/>
    <trip id="vehicle13" type="/Users/nikitazigman/code/jku_its/h2mob/sumo/scenario_generator/vehicle_types.xml" depart="46800.00" from="304028058" to="304084481"/>
    <trip id="vehicle14" type="/Users/nikitazigman/code/jku_its/h2mob/sumo/scenario_generator/vehicle_types.xml" depart="50400.00" from="304080978" to="304029409"/>
    <trip id="vehicle15" type="/Users/nikitazigman/code/jku_its/h2mob/sumo/scenario_generator/vehicle_types.xml" depart="54000.00" from="304106282" to="304051951"/>
    <trip id="vehicle16" type="/Users/nikitazigman/code/jku_its/h2mob/sumo/scenario_generator/vehicle_types.xml" depart="57600.00" from="304019519#1" to="304184060#1"/>
    <trip id="vehicle17" type="/Users/nikitazigman/code/jku_its/h2mob/sumo/scenario_generator/vehicle_types.xml" depart="61200.00" from="304112744" to="304036856#1"/>
    <trip id="vehicle18" type="/Users/nikitazigman/code/jku_its/h2mob/sumo/scenario_generator/vehicle_types.xml" depart="64800.00" from="304108032#1" to="2041890824"/>
    <trip id="vehicle19" type="/Users/nikitazigman/code/jku_its/h2mob/sumo/scenario_generator/vehicle_types.xml" depart="68400.00" from="304111256#1" to="304224360"/>
    <trip id="vehicle20" type="/Users/nikitazigman/code/jku_its/h2mob/sumo/scenario_generator/vehicle_types.xml" depart="72000.00" from="304081310" to="304109522#1"/>
    <trip id="vehicle21" type="/Users/nikitazigman/code/jku_its/h2mob/sumo/scenario_generator/vehicle_types.xml" depart="75600.00" from="304029671" to="304240685"/>
    <trip id="vehicle22" type="/Users/nikitazigman/code/jku_its/h2mob/sumo/scenario_generator/vehicle_types.xml" depart="79200.00" from="304109983#1" to="304080885"/>
    <trip id="vehicle23" type="/Users/nikitazigman/code/jku_its/h2mob/sumo/scenario_generator/vehicle_types.xml" depart="82800.00" from="2041890972#1" to="304114339#1"/>
</routes>
