<?xml version="1.0" encoding="UTF-8"?>

<!-- generated on 2023-12-27 14:52:45 by Eclipse SUMO netedit Version 1.19.0
-->

<additional xmlns:xsi="http://www.w3.org/2001/XMLSchema-instance" xsi:noNamespaceSchemaLocation="http://sumo.dlr.de/xsd/additional_file.xsd">
    <!-- StoppingPlaces -->
    <chargingStation id="cs_0" lane="E2_0" startPos="3.49" endPos="34.86" power="748900000.00" efficiency="1.00" chargeType="fuel"/>
    <chargingStation id="cs_1" lane="E9_0" startPos="2.45" endPos="32.45" power="748900000.00" efficiency="1.00" chargeType="fuel"/>
    <chargingStation id="cs_2" lane="E12_0" startPos="3.95" endPos="32.37" power="748900000.00" efficiency="1.00" chargeType="fuel"/>
    <chargingStation id="cs_3" lane="E16_0" startPos="12.49" endPos="42.49" power="748900000.00" efficiency="1.00" chargeType="fuel"/>
    <chargingStation id="cs_4" lane="E18_0" startPos="0.00" endPos="30.00" power="748900000.00" efficiency="1.00" chargeType="fuel"/>
    <chargingStation id="cs_5" lane="E22_0" startPos="13.99" endPos="43.00" power="748900000.00" efficiency="1.00" chargeType="fuel"/>
    <chargingStation id="cs_6" lane="E28_0" startPos="4.00" endPos="28.00" power="748900000.00" efficiency="1.00" chargeType="fuel"/>
    <chargingStation id="cs_7" lane="E32_0" startPos="30.36" endPos="60.29" power="748900000.00" efficiency="1.00" chargeType="fuel"/>
    <chargingStation id="cs_8" lane="E35_0" startPos="8.61" endPos="38.61" power="748900000.00" efficiency="1.00" chargeType="fuel"/>
</additional>
