<?xml version="1.0" encoding="UTF-8"?>

<!-- generated on 2023-12-22 11:40:59.028127 by randomTrips.py UNKNOWN
<configuration>
    <net-file value="/Users/nikitazigman/code/jku_its/h2mob/sumo/test_scenario/osm.net.xml.gz"/>
    <additional-files value="/Users/nikitazigman/code/jku_its/h2mob/sumo/test_scenario/vehicle_types.add.xml"/>
    <prefix value="route_23_"/>
    <trip-attributes value="type=h-vehicle"/>
    <random value="True"/>
    <min-distance value="1500.0"/>
    <max-distance value="10000.0"/>
    <begin value="82800.0"/>
    <end value="86400.0"/>
    <insertion-rate value="300.0"/>
</configuration>
-->

<routes xmlns:xsi="http://www.w3.org/2001/XMLSchema-instance" xsi:noNamespaceSchemaLocation="http://sumo.dlr.de/xsd/routes_file.xsd">
    <trip id="route_23_0" depart="82800.00" from="-1231660718#1" to="24906187#0" type=h-vehicle/>
    <trip id="route_23_1" depart="82812.00" from="24906667#0" to="-413978789" type=h-vehicle/>
    <trip id="route_23_2" depart="82824.00" from="-413742248" to="902209584#0" type=h-vehicle/>
    <trip id="route_23_3" depart="82836.00" from="-783362840" to="-413978810" type=h-vehicle/>
    <trip id="route_23_4" depart="82848.00" from="24905649#0" to="15802689#1-AddedOnRampEdge" type=h-vehicle/>
    <trip id="route_23_5" depart="82860.00" from="24906170#6" to="-413978817" type=h-vehicle/>
    <trip id="route_23_6" depart="82872.00" from="24905645#7" to="-49715768#1" type=h-vehicle/>
    <trip id="route_23_7" depart="82884.00" from="413742248" to="24906667#0" type=h-vehicle/>
    <trip id="route_23_8" depart="82896.00" from="-4228459#5" to="854901106#0" type=h-vehicle/>
    <trip id="route_23_9" depart="82908.00" from="24906485#0" to="553571574#1" type=h-vehicle/>
    <trip id="route_23_10" depart="82920.00" from="35414407#0" to="32545424" type=h-vehicle/>
    <trip id="route_23_11" depart="82932.00" from="35414408#0" to="26467497#19" type=h-vehicle/>
    <trip id="route_23_12" depart="82944.00" from="854901336#0" to="783362840" type=h-vehicle/>
    <trip id="route_23_13" depart="82956.00" from="-143086134#13" to="-1147407326#7" type=h-vehicle/>
    <trip id="route_23_14" depart="82968.00" from="186092028" to="-179426987#0" type=h-vehicle/>
    <trip id="route_23_15" depart="82980.00" from="-110751219" to="-143086134#13" type=h-vehicle/>
    <trip id="route_23_16" depart="82992.00" from="-24906154#13" to="130100032#0" type=h-vehicle/>
    <trip id="route_23_17" depart="83004.00" from="-24905820#20" to="-24906723#2" type=h-vehicle/>
    <trip id="route_23_18" depart="83016.00" from="413978796#0" to="-131824315" type=h-vehicle/>
    <trip id="route_23_19" depart="83028.00" from="186092028" to="-1147407326#7" type=h-vehicle/>
    <trip id="route_23_20" depart="83040.00" from="186092524" to="131821573#0" type=h-vehicle/>
    <trip id="route_23_21" depart="83052.00" from="1089324811#0" to="24906753#4" type=h-vehicle/>
    <trip id="route_23_22" depart="83064.00" from="26467348" to="-186092007" type=h-vehicle/>
    <trip id="route_23_23" depart="83076.00" from="49715768#0" to="32545216#6" type=h-vehicle/>
    <trip id="route_23_24" depart="83088.00" from="-24905855#13" to="102545031" type=h-vehicle/>
    <trip id="route_23_25" depart="83100.00" from="-131730417#5" to="-1147407326#4" type=h-vehicle/>
    <trip id="route_23_26" depart="83112.00" from="-94362562#1" to="E2" type=h-vehicle/>
    <trip id="route_23_27" depart="83124.00" from="-4228459#5" to="24906920#4" type=h-vehicle/>
    <trip id="route_23_28" depart="83136.00" from="1147407326#5" to="413742247" type=h-vehicle/>
    <trip id="route_23_29" depart="83148.00" from="902209584#0" to="854901336#0" type=h-vehicle/>
    <trip id="route_23_30" depart="83160.00" from="24906187#4" to="-130193816" type=h-vehicle/>
    <trip id="route_23_31" depart="83172.00" from="-29589786#5" to="186092522" type=h-vehicle/>
    <trip id="route_23_32" depart="83184.00" from="32545424" to="179426985" type=h-vehicle/>
    <trip id="route_23_33" depart="83196.00" from="-24906753#5" to="84866968#0" type=h-vehicle/>
    <trip id="route_23_34" depart="83208.00" from="24906154#13" to="186092001" type=h-vehicle/>
    <trip id="route_23_35" depart="83220.00" from="-143086134#10" to="130895562" type=h-vehicle/>
    <trip id="route_23_36" depart="83232.00" from="-84866968#6" to="24906721#0" type=h-vehicle/>
    <trip id="route_23_37" depart="83244.00" from="179422410#0" to="24906747#0" type=h-vehicle/>
    <trip id="route_23_38" depart="83256.00" from="-705125253" to="143086134#0" type=h-vehicle/>
    <trip id="route_23_39" depart="83268.00" from="-24906154#19" to="179426985" type=h-vehicle/>
    <trip id="route_23_40" depart="83280.00" from="186092521" to="-24905547#5" type=h-vehicle/>
    <trip id="route_23_41" depart="83292.00" from="-143086134#10" to="24906744#1" type=h-vehicle/>
    <trip id="route_23_42" depart="83304.00" from="-24905645#10" to="523639850" type=h-vehicle/>
    <trip id="route_23_43" depart="83316.00" from="854901336#0" to="4228459#0" type=h-vehicle/>
    <trip id="route_23_44" depart="83328.00" from="-24906920#3" to="-430021683#6" type=h-vehicle/>
    <trip id="route_23_45" depart="83340.00" from="47370209" to="-430021683#10" type=h-vehicle/>
    <trip id="route_23_46" depart="83352.00" from="-29589781#8" to="-24905645#10" type=h-vehicle/>
    <trip id="route_23_47" depart="83364.00" from="24906785#0" to="-413978789" type=h-vehicle/>
    <trip id="route_23_48" depart="83376.00" from="24906170#7" to="186092028" type=h-vehicle/>
    <trip id="route_23_49" depart="83388.00" from="-186092023#1" to="26467498#0" type=h-vehicle/>
    <trip id="route_23_50" depart="83400.00" from="24906673#0" to="-413978817" type=h-vehicle/>
    <trip id="route_23_51" depart="83412.00" from="552173990" to="-24906744#7" type=h-vehicle/>
    <trip id="route_23_52" depart="83424.00" from="-131730417#5" to="32545216#6" type=h-vehicle/>
    <trip id="route_23_53" depart="83436.00" from="24906154#20" to="-413978789" type=h-vehicle/>
    <trip id="route_23_54" depart="83448.00" from="42920994" to="29589781#4" type=h-vehicle/>
    <trip id="route_23_55" depart="83460.00" from="27939609#2" to="24905855#2" type=h-vehicle/>
    <trip id="route_23_56" depart="83472.00" from="130869322#0" to="-430022510" type=h-vehicle/>
    <trip id="route_23_57" depart="83484.00" from="-186092020" to="24906178#10" type=h-vehicle/>
    <trip id="route_23_58" depart="83496.00" from="-783362840" to="29590610#0" type=h-vehicle/>
    <trip id="route_23_59" depart="83508.00" from="430021683#0" to="24906485#0" type=h-vehicle/>
    <trip id="route_23_60" depart="83520.00" from="430021675#10" to="24906924#0" type=h-vehicle/>
    <trip id="route_23_61" depart="83532.00" from="130869318" to="854901106#0" type=h-vehicle/>
    <trip id="route_23_62" depart="83544.00" from="130869318" to="32545218#0" type=h-vehicle/>
    <trip id="route_23_63" depart="83556.00" from="-27018811" to="131730416" type=h-vehicle/>
    <trip id="route_23_64" depart="83568.00" from="24906210#16" to="179426988" type=h-vehicle/>
    <trip id="route_23_65" depart="83580.00" from="-24906178#9" to="-413742248" type=h-vehicle/>
    <trip id="route_23_66" depart="83592.00" from="-94362562#1" to="-430021694#2" type=h-vehicle/>
    <trip id="route_23_67" depart="83604.00" from="-24905637#7" to="-29589781#3" type=h-vehicle/>
    <trip id="route_23_68" depart="83616.00" from="130193814" to="24905855#0" type=h-vehicle/>
    <trip id="route_23_69" depart="83628.00" from="130895563" to="143086134#11" type=h-vehicle/>
    <trip id="route_23_70" depart="83640.00" from="67263975#0" to="-430022510" type=h-vehicle/>
    <trip id="route_23_71" depart="83652.00" from="-110751213" to="-413978808#1" type=h-vehicle/>
    <trip id="route_23_72" depart="83664.00" from="-30712581#0" to="-24905855#11" type=h-vehicle/>
    <trip id="route_23_73" depart="83676.00" from="854901336#0" to="-24905855#12" type=h-vehicle/>
    <trip id="route_23_74" depart="83688.00" from="-24906920#11" to="-24906178#18" type=h-vehicle/>
    <trip id="route_23_75" depart="83700.00" from="-4228459#5" to="-49715768#1" type=h-vehicle/>
    <trip id="route_23_76" depart="83712.00" from="-26467497#16" to="15802668" type=h-vehicle/>
    <trip id="route_23_77" depart="83724.00" from="-386495615" to="-24905535" type=h-vehicle/>
    <trip id="route_23_78" depart="83736.00" from="42921193" to="-186092000" type=h-vehicle/>
    <trip id="route_23_79" depart="83748.00" from="-29592917#13" to="555798702#9" type=h-vehicle/>
    <trip id="route_23_80" depart="83760.00" from="-29589781#8" to="186092007" type=h-vehicle/>
    <trip id="route_23_81" depart="83772.00" from="179422415#0" to="35414408#0" type=h-vehicle/>
    <trip id="route_23_82" depart="83784.00" from="131824315" to="186092525" type=h-vehicle/>
    <trip id="route_23_83" depart="83796.00" from="-24906920#3" to="130895564" type=h-vehicle/>
    <trip id="route_23_84" depart="83808.00" from="-29590610#7" to="-24906187#14" type=h-vehicle/>
    <trip id="route_23_85" depart="83820.00" from="413978789" to="-24905645#6" type=h-vehicle/>
    <trip id="route_23_86" depart="83832.00" from="49715768#0" to="24906747#0" type=h-vehicle/>
    <trip id="route_23_87" depart="83844.00" from="-24906224#14" to="186092525" type=h-vehicle/>
    <trip id="route_23_88" depart="83856.00" from="-24905535" to="-35414407#4" type=h-vehicle/>
    <trip id="route_23_89" depart="83868.00" from="430021683#9" to="-27018811" type=h-vehicle/>
    <trip id="route_23_90" depart="83880.00" from="110751213" to="24905535" type=h-vehicle/>
    <trip id="route_23_91" depart="83892.00" from="24905820#9" to="27939609#2" type=h-vehicle/>
    <trip id="route_23_92" depart="83904.00" from="24906313#0" to="27939609#2" type=h-vehicle/>
    <trip id="route_23_93" depart="83916.00" from="-24905644#11" to="15802689#1" type=h-vehicle/>
    <trip id="route_23_94" depart="83928.00" from="130193825#0" to="1147407326#5" type=h-vehicle/>
    <trip id="route_23_95" depart="83940.00" from="24905535" to="-705125253" type=h-vehicle/>
    <trip id="route_23_96" depart="83952.00" from="-186092007" to="24906210#0" type=h-vehicle/>
    <trip id="route_23_97" depart="83964.00" from="-27939612#5" to="24905855#0" type=h-vehicle/>
    <trip id="route_23_98" depart="83976.00" from="24905855#9" to="-413978808#1" type=h-vehicle/>
    <trip id="route_23_99" depart="83988.00" from="-430021674#3" to="130895564" type=h-vehicle/>
    <trip id="route_23_100" depart="84000.00" from="186092013" to="-94362557#1" type=h-vehicle/>
    <trip id="route_23_101" depart="84012.00" from="-32695446" to="-413978808#1" type=h-vehicle/>
    <trip id="route_23_102" depart="84024.00" from="-552173990" to="24905644#0" type=h-vehicle/>
    <trip id="route_23_103" depart="84036.00" from="130096976" to="24906550" type=h-vehicle/>
    <trip id="route_23_104" depart="84048.00" from="-1089324812#1" to="15802668" type=h-vehicle/>
    <trip id="route_23_105" depart="84060.00" from="32545425" to="854901106#0" type=h-vehicle/>
    <trip id="route_23_106" depart="84072.00" from="-413978808#1" to="-32545425" type=h-vehicle/>
    <trip id="route_23_107" depart="84084.00" from="30712581#0" to="32545426" type=h-vehicle/>
    <trip id="route_23_108" depart="84096.00" from="-24906920#11" to="-430021675#14" type=h-vehicle/>
    <trip id="route_23_109" depart="84108.00" from="-179422410#1" to="-24906210#15" type=h-vehicle/>
    <trip id="route_23_110" depart="84120.00" from="-552173990" to="130895562" type=h-vehicle/>
    <trip id="route_23_111" depart="84132.00" from="24906785#3" to="413978808#0" type=h-vehicle/>
    <trip id="route_23_112" depart="84144.00" from="1197549801" to="-431436422" type=h-vehicle/>
    <trip id="route_23_113" depart="84156.00" from="-24906673#5" to="30712581#3" type=h-vehicle/>
    <trip id="route_23_114" depart="84168.00" from="29589786#0" to="-24905855#11" type=h-vehicle/>
    <trip id="route_23_115" depart="84180.00" from="-186092013" to="24905644#0" type=h-vehicle/>
    <trip id="route_23_116" depart="84192.00" from="24906210#16" to="854901101#0" type=h-vehicle/>
    <trip id="route_23_117" depart="84204.00" from="413978810" to="-430021683#10" type=h-vehicle/>
    <trip id="route_23_118" depart="84216.00" from="-130100032#1" to="4228459#0" type=h-vehicle/>
    <trip id="route_23_119" depart="84228.00" from="413978789" to="-30713060#1" type=h-vehicle/>
    <trip id="route_23_120" depart="84240.00" from="-24905649#12" to="186092028" type=h-vehicle/>
    <trip id="route_23_121" depart="84252.00" from="-30710769#3" to="-29592917#13" type=h-vehicle/>
    <trip id="route_23_122" depart="84264.00" from="1147407326#5" to="27018811" type=h-vehicle/>
    <trip id="route_23_123" depart="84276.00" from="26467497#19" to="30713061" type=h-vehicle/>
    <trip id="route_23_124" depart="84288.00" from="24906920#7" to="110751233#9" type=h-vehicle/>
    <trip id="route_23_125" depart="84300.00" from="-24906154#19" to="-186092023#0" type=h-vehicle/>
    <trip id="route_23_126" depart="84312.00" from="-24905547#5" to="-186092023#0" type=h-vehicle/>
    <trip id="route_23_127" depart="84324.00" from="47370209" to="-430021683#10" type=h-vehicle/>
    <trip id="route_23_128" depart="84336.00" from="49715768#0" to="-24906672#1" type=h-vehicle/>
    <trip id="route_23_129" depart="84348.00" from="-47370208" to="84866968#0" type=h-vehicle/>
    <trip id="route_23_130" depart="84360.00" from="24906187#16" to="179422410#0" type=h-vehicle/>
    <trip id="route_23_131" depart="84372.00" from="-29592917#13" to="24905855#0" type=h-vehicle/>
    <trip id="route_23_132" depart="84384.00" from="-413978808#1" to="24906170#7" type=h-vehicle/>
    <trip id="route_23_133" depart="84396.00" from="-143086134#13" to="-24905855#11" type=h-vehicle/>
    <trip id="route_23_134" depart="84408.00" from="-25730706#1" to="186092020" type=h-vehicle/>
    <trip id="route_23_135" depart="84420.00" from="-94362562#2" to="-413742245#1" type=h-vehicle/>
    <trip id="route_23_136" depart="84432.00" from="-94362565" to="35414407#0" type=h-vehicle/>
    <trip id="route_23_137" depart="84444.00" from="-24906178#18" to="186092007" type=h-vehicle/>
    <trip id="route_23_138" depart="84456.00" from="179422415#4" to="30713403" type=h-vehicle/>
    <trip id="route_23_139" depart="84468.00" from="413742245#0" to="-26467497#19" type=h-vehicle/>
    <trip id="route_23_140" depart="84480.00" from="24906817" to="555798702#4" type=h-vehicle/>
    <trip id="route_23_141" depart="84492.00" from="430021683#7" to="49431327" type=h-vehicle/>
    <trip id="route_23_142" depart="84504.00" from="179422410#0" to="-430021675#14" type=h-vehicle/>
    <trip id="route_23_143" depart="84516.00" from="902209584#0" to="30712581#3" type=h-vehicle/>
    <trip id="route_23_144" depart="84528.00" from="413978817" to="1147407326#5" type=h-vehicle/>
    <trip id="route_23_145" depart="84540.00" from="413742252#0" to="24905855#2" type=h-vehicle/>
    <trip id="route_23_146" depart="84552.00" from="94362557#0" to="-413978817" type=h-vehicle/>
    <trip id="route_23_147" depart="84564.00" from="-27939609#6" to="24906667#0" type=h-vehicle/>
    <trip id="route_23_148" depart="84576.00" from="413742249" to="30710769#0" type=h-vehicle/>
    <trip id="route_23_149" depart="84588.00" from="-35414407#2" to="-24905855#1" type=h-vehicle/>
    <trip id="route_23_150" depart="84600.00" from="854901102#0" to="-1147407326#10" type=h-vehicle/>
    <trip id="route_23_151" depart="84612.00" from="-430021683#8" to="842118412" type=h-vehicle/>
    <trip id="route_23_152" depart="84624.00" from="-24906924#3" to="4228459#0" type=h-vehicle/>
    <trip id="route_23_153" depart="84636.00" from="15802689#1-AddedOnRampEdge" to="131730416" type=h-vehicle/>
    <trip id="route_23_154" depart="84648.00" from="-413742244" to="-1147407326#7" type=h-vehicle/>
    <trip id="route_23_155" depart="84660.00" from="30712581#0" to="-24906672#1" type=h-vehicle/>
    <trip id="route_23_156" depart="84672.00" from="4364458" to="-130869322#2" type=h-vehicle/>
    <trip id="route_23_157" depart="84684.00" from="-143086134#13" to="-1089324812#1" type=h-vehicle/>
    <trip id="route_23_158" depart="84696.00" from="24906224#15" to="-84866983#4" type=h-vehicle/>
    <trip id="route_23_159" depart="84708.00" from="24906744#4" to="-413978810" type=h-vehicle/>
    <trip id="route_23_160" depart="84720.00" from="-29590610#2" to="-24906224#14" type=h-vehicle/>
    <trip id="route_23_161" depart="84732.00" from="-24905649#12" to="186092007" type=h-vehicle/>
    <trip id="route_23_162" depart="84744.00" from="-130450823#2" to="-130098962" type=h-vehicle/>
    <trip id="route_23_163" depart="84756.00" from="24906313#0" to="-430021676#4" type=h-vehicle/>
    <trip id="route_23_164" depart="84768.00" from="-413742252#2" to="24906667#5" type=h-vehicle/>
    <trip id="route_23_165" depart="84780.00" from="186092023#1" to="1089324812#0" type=h-vehicle/>
    <trip id="route_23_166" depart="84792.00" from="-186092020" to="131730416" type=h-vehicle/>
    <trip id="route_23_167" depart="84804.00" from="-24906785#2" to="1218689452#1" type=h-vehicle/>
    <trip id="route_23_168" depart="84816.00" from="24905645#0" to="-413978817" type=h-vehicle/>
    <trip id="route_23_169" depart="84828.00" from="130869322#0" to="179422410#0" type=h-vehicle/>
    <trip id="route_23_170" depart="84840.00" from="-102545031" to="-24906170#5" type=h-vehicle/>
    <trip id="route_23_171" depart="84852.00" from="-24906920#14" to="902209584#0" type=h-vehicle/>
    <trip id="route_23_172" depart="84864.00" from="130098962" to="179426987#1" type=h-vehicle/>
    <trip id="route_23_173" depart="84876.00" from="552173990" to="32545221" type=h-vehicle/>
    <trip id="route_23_174" depart="84888.00" from="-24906178#8" to="-24906920#6" type=h-vehicle/>
    <trip id="route_23_175" depart="84900.00" from="1147407326#0" to="-179426985" type=h-vehicle/>
    <trip id="route_23_176" depart="84912.00" from="49715768#0" to="-24906154#25" type=h-vehicle/>
    <trip id="route_23_177" depart="84924.00" from="130098948" to="186092525" type=h-vehicle/>
    <trip id="route_23_178" depart="84936.00" from="-24905535" to="67263975#0" type=h-vehicle/>
    <trip id="route_23_179" depart="84948.00" from="-131821574#2" to="15802668" type=h-vehicle/>
    <trip id="route_23_180" depart="84960.00" from="1231659129#0" to="430021679" type=h-vehicle/>
    <trip id="route_23_181" depart="84972.00" from="130099424" to="84866968#0" type=h-vehicle/>
    <trip id="route_23_182" depart="84984.00" from="-24905637#7" to="-24906485#3" type=h-vehicle/>
    <trip id="route_23_183" depart="84996.00" from="-30713060#1" to="552173990" type=h-vehicle/>
    <trip id="route_23_184" depart="85008.00" from="-430021676#8" to="-431436419#13" type=h-vehicle/>
    <trip id="route_23_185" depart="85020.00" from="-130895560" to="-131824366" type=h-vehicle/>
    <trip id="route_23_186" depart="85032.00" from="29592917#0" to="-110751213" type=h-vehicle/>
    <trip id="route_23_187" depart="85044.00" from="32545425" to="15802676-AddedOffRampEdge" type=h-vehicle/>
    <trip id="route_23_188" depart="85056.00" from="-430021676#3" to="129624596" type=h-vehicle/>
    <trip id="route_23_189" depart="85068.00" from="-413978810" to="430021690#0" type=h-vehicle/>
    <trip id="route_23_190" depart="85080.00" from="24905855#13" to="1197549801" type=h-vehicle/>
    <trip id="route_23_191" depart="85092.00" from="413978810" to="-130450823#8" type=h-vehicle/>
    <trip id="route_23_192" depart="85104.00" from="553571574#0" to="15802689#0" type=h-vehicle/>
    <trip id="route_23_193" depart="85116.00" from="-24906170#16" to="-413742243" type=h-vehicle/>
    <trip id="route_23_194" depart="85128.00" from="-47370209" to="24905645#2" type=h-vehicle/>
    <trip id="route_23_195" depart="85140.00" from="-26467348" to="413978817" type=h-vehicle/>
    <trip id="route_23_196" depart="85152.00" from="-179426985" to="-902209575" type=h-vehicle/>
    <trip id="route_23_197" depart="85164.00" from="24905637#1" to="555252198#0" type=h-vehicle/>
    <trip id="route_23_198" depart="85176.00" from="24905855#14" to="29589781#4" type=h-vehicle/>
    <trip id="route_23_199" depart="85188.00" from="24906411" to="-129625068" type=h-vehicle/>
    <trip id="route_23_200" depart="85200.00" from="-24906154#12" to="29590610#0" type=h-vehicle/>
    <trip id="route_23_201" depart="85212.00" from="-27939609#6" to="-24906224#14" type=h-vehicle/>
    <trip id="route_23_202" depart="85224.00" from="186092023#1" to="-24905645#6" type=h-vehicle/>
    <trip id="route_23_203" depart="85236.00" from="413742244" to="-179426987#2" type=h-vehicle/>
    <trip id="route_23_204" depart="85248.00" from="30711453" to="-179426984#2" type=h-vehicle/>
    <trip id="route_23_205" depart="85260.00" from="-130911741#1" to="24906485#0" type=h-vehicle/>
    <trip id="route_23_206" depart="85272.00" from="-129624596" to="-24906920#6" type=h-vehicle/>
    <trip id="route_23_207" depart="85284.00" from="-24906154#19" to="143086134#0" type=h-vehicle/>
    <trip id="route_23_208" depart="85296.00" from="94362557#0" to="-1147407326#7" type=h-vehicle/>
    <trip id="route_23_209" depart="85308.00" from="-24905855#14" to="-130096976" type=h-vehicle/>
    <trip id="route_23_210" depart="85320.00" from="-316235030" to="-24906672#1" type=h-vehicle/>
    <trip id="route_23_211" depart="85332.00" from="-186092007" to="24906224#15" type=h-vehicle/>
    <trip id="route_23_212" depart="85344.00" from="24906753#4" to="-29589781#3" type=h-vehicle/>
    <trip id="route_23_213" depart="85356.00" from="24906224#15" to="-24906924#3" type=h-vehicle/>
    <trip id="route_23_214" depart="85368.00" from="386495618" to="24906187#16" type=h-vehicle/>
    <trip id="route_23_215" depart="85380.00" from="131824366" to="-102545041" type=h-vehicle/>
    <trip id="route_23_216" depart="85392.00" from="24906187#4" to="-30712581#2" type=h-vehicle/>
    <trip id="route_23_217" depart="85404.00" from="842118412" to="-430021683#8" type=h-vehicle/>
    <trip id="route_23_218" depart="85416.00" from="102545041" to="-32545425" type=h-vehicle/>
    <trip id="route_23_219" depart="85428.00" from="102545054-AddedOnRampEdge" to="24906673#0" type=h-vehicle/>
    <trip id="route_23_220" depart="85440.00" from="-24906210#15" to="186092520" type=h-vehicle/>
    <trip id="route_23_221" depart="85452.00" from="-413742252#2" to="902209584#0" type=h-vehicle/>
    <trip id="route_23_222" depart="85464.00" from="15802676" to="-24905535" type=h-vehicle/>
    <trip id="route_23_223" depart="85476.00" from="24905535" to="-24906794#0" type=h-vehicle/>
    <trip id="route_23_224" depart="85488.00" from="-179426985" to="179422415#0" type=h-vehicle/>
    <trip id="route_23_225" depart="85500.00" from="-129624607" to="413978796#0" type=h-vehicle/>
    <trip id="route_23_226" depart="85512.00" from="-130450825#1" to="-67263975#2" type=h-vehicle/>
    <trip id="route_23_227" depart="85524.00" from="1197549802" to="-179422415#0" type=h-vehicle/>
    <trip id="route_23_228" depart="85536.00" from="130193815" to="-24906667#7" type=h-vehicle/>
    <trip id="route_23_229" depart="85548.00" from="130096976" to="-32545424" type=h-vehicle/>
    <trip id="route_23_230" depart="85560.00" from="15802689#1" to="430021676#5" type=h-vehicle/>
    <trip id="route_23_231" depart="85572.00" from="29589781#0" to="430021675#8" type=h-vehicle/>
    <trip id="route_23_232" depart="85584.00" from="26467497#17" to="-130096976" type=h-vehicle/>
    <trip id="route_23_233" depart="85596.00" from="1197549801" to="-131824366" type=h-vehicle/>
    <trip id="route_23_234" depart="85608.00" from="430021683#0" to="413742245#0" type=h-vehicle/>
    <trip id="route_23_235" depart="85620.00" from="-430021676#8" to="24906747#3" type=h-vehicle/>
    <trip id="route_23_236" depart="85632.00" from="-24905855#13" to="25730707#0" type=h-vehicle/>
    <trip id="route_23_237" depart="85644.00" from="26467498#0" to="29590610#0" type=h-vehicle/>
    <trip id="route_23_238" depart="85656.00" from="-27939609#6" to="110751198#4" type=h-vehicle/>
    <trip id="route_23_239" depart="85668.00" from="-26467497#16" to="-1231660718#1" type=h-vehicle/>
    <trip id="route_23_240" depart="85680.00" from="-94362562#1" to="-130098962" type=h-vehicle/>
    <trip id="route_23_241" depart="85692.00" from="316235030" to="186092023#1" type=h-vehicle/>
    <trip id="route_23_242" depart="85704.00" from="110751213" to="679732022" type=h-vehicle/>
    <trip id="route_23_243" depart="85716.00" from="42921193" to="186092017#0" type=h-vehicle/>
    <trip id="route_23_244" depart="85728.00" from="-1147407326#7" to="-58654875" type=h-vehicle/>
    <trip id="route_23_245" depart="85740.00" from="24906170#6" to="-29590610#7" type=h-vehicle/>
    <trip id="route_23_246" depart="85752.00" from="-27939609#6" to="555798702#4" type=h-vehicle/>
    <trip id="route_23_247" depart="85764.00" from="-430021683#1" to="130193884#0" type=h-vehicle/>
    <trip id="route_23_248" depart="85776.00" from="-130450823#8" to="-29592917#13" type=h-vehicle/>
    <trip id="route_23_249" depart="85788.00" from="854901103#0" to="-129624596" type=h-vehicle/>
    <trip id="route_23_250" depart="85800.00" from="-24906798" to="679732022" type=h-vehicle/>
    <trip id="route_23_251" depart="85812.00" from="15802672" to="-179426987#2" type=h-vehicle/>
    <trip id="route_23_252" depart="85824.00" from="-430021683#6" to="-413978796#1" type=h-vehicle/>
    <trip id="route_23_253" depart="85836.00" from="-27939609#1" to="-24906794#1" type=h-vehicle/>
    <trip id="route_23_254" depart="85848.00" from="24906224#15" to="-47370208" type=h-vehicle/>
    <trip id="route_23_255" depart="85860.00" from="-131821573#2" to="-186092023#1" type=h-vehicle/>
    <trip id="route_23_256" depart="85872.00" from="-24905450#11" to="552173990" type=h-vehicle/>
    <trip id="route_23_257" depart="85884.00" from="854901336#0" to="26467497#17" type=h-vehicle/>
    <trip id="route_23_258" depart="85896.00" from="-413978810" to="430021675#1" type=h-vehicle/>
    <trip id="route_23_259" depart="85908.00" from="-35414408#2" to="-32545425" type=h-vehicle/>
    <trip id="route_23_260" depart="85920.00" from="-67263975#2" to="-32545425" type=h-vehicle/>
    <trip id="route_23_261" depart="85932.00" from="-413742245#1" to="-129625068" type=h-vehicle/>
    <trip id="route_23_262" depart="85944.00" from="552173990" to="-24906747#4" type=h-vehicle/>
    <trip id="route_23_263" depart="85956.00" from="-24906187#16" to="-32545216#5" type=h-vehicle/>
    <trip id="route_23_264" depart="85968.00" from="30713060#2" to="179426985" type=h-vehicle/>
    <trip id="route_23_265" depart="85980.00" from="553571574#0" to="-35414132" type=h-vehicle/>
    <trip id="route_23_266" depart="85992.00" from="-1147407326#10" to="-186092023#1" type=h-vehicle/>
    <trip id="route_23_267" depart="86004.00" from="-94362562#1" to="-555252199#1" type=h-vehicle/>
    <trip id="route_23_268" depart="86016.00" from="-179422415#0" to="1197549802" type=h-vehicle/>
    <trip id="route_23_269" depart="86028.00" from="-179422415#0" to="-430021676#3" type=h-vehicle/>
    <trip id="route_23_270" depart="86040.00" from="15802689#0" to="24906154#14" type=h-vehicle/>
    <trip id="route_23_271" depart="86052.00" from="430021676#4" to="-94362557#1" type=h-vehicle/>
    <trip id="route_23_272" depart="86064.00" from="130869318" to="-186092023#0" type=h-vehicle/>
    <trip id="route_23_273" depart="86076.00" from="-47360947" to="84866968#0" type=h-vehicle/>
    <trip id="route_23_274" depart="86088.00" from="42921193" to="24906747#5" type=h-vehicle/>
    <trip id="route_23_275" depart="86100.00" from="-430021676#3" to="24906210#16" type=h-vehicle/>
    <trip id="route_23_276" depart="86112.00" from="-430021680" to="29592917#0" type=h-vehicle/>
    <trip id="route_23_277" depart="86124.00" from="24905855#9" to="430021676#4" type=h-vehicle/>
    <trip id="route_23_278" depart="86136.00" from="35414407#0" to="-24906224#18" type=h-vehicle/>
    <trip id="route_23_279" depart="86148.00" from="186092522" to="24906920#12" type=h-vehicle/>
    <trip id="route_23_280" depart="86160.00" from="-4228459#5" to="15802668" type=h-vehicle/>
    <trip id="route_23_281" depart="86172.00" from="-24906224#14" to="854901101#0" type=h-vehicle/>
    <trip id="route_23_282" depart="86184.00" from="26467497#17" to="186092525" type=h-vehicle/>
    <trip id="route_23_283" depart="86196.00" from="130193814" to="24906187#15" type=h-vehicle/>
    <trip id="route_23_284" depart="86208.00" from="179426987#0" to="-24906920#11" type=h-vehicle/>
    <trip id="route_23_285" depart="86220.00" from="24905637#8" to="179426985" type=h-vehicle/>
    <trip id="route_23_286" depart="86232.00" from="555252198#0" to="24906170#6" type=h-vehicle/>
    <trip id="route_23_287" depart="86244.00" from="24906920#0" to="-179422415#0" type=h-vehicle/>
    <trip id="route_23_288" depart="86256.00" from="24906794#1" to="-84866968#6" type=h-vehicle/>
    <trip id="route_23_289" depart="86268.00" from="-131821574#2" to="854901105#0" type=h-vehicle/>
    <trip id="route_23_290" depart="86280.00" from="-24906187#14" to="-413978789" type=h-vehicle/>
    <trip id="route_23_291" depart="86292.00" from="-24906187#15" to="854901101#0" type=h-vehicle/>
    <trip id="route_23_292" depart="86304.00" from="24905820#9" to="-413742245#1" type=h-vehicle/>
    <trip id="route_23_293" depart="86316.00" from="-430021683#8" to="-29590610#2" type=h-vehicle/>
    <trip id="route_23_294" depart="86328.00" from="-24906803" to="-413978810" type=h-vehicle/>
    <trip id="route_23_295" depart="86340.00" from="-47370208" to="-32545218#3" type=h-vehicle/>
    <trip id="route_23_296" depart="86352.00" from="1147407326#8" to="413978808#0" type=h-vehicle/>
    <trip id="route_23_297" depart="86364.00" from="-24905855#14" to="854901102#0" type=h-vehicle/>