<?xml version="1.0" encoding="UTF-8"?>

<!-- generated on 2023-12-22 20:06:32.916866 by randomTrips.py UNKNOWN
<configuration>
    <net-file value="/Users/nikitazigman/code/jku_its/h2mob/sumo/test_scenario/osm.net.xml.gz"/>
    <additional-files value="/Users/nikitazigman/code/jku_its/h2mob/sumo/test_scenario/vehicles_types.add.xml"/>
    <output-trip-file value="/Users/nikitazigman/code/jku_its/h2mob/sumo/test_scenario/trips.trips.xml"/>
    <route-file value="/Users/nikitazigman/code/jku_its/h2mob/sumo/test_scenario/routes.rou.xml"/>
    <prefix value="route_23_"/>
    <trip-attributes value="type='vehicle_distribution'"/>
    <random value="True"/>
    <min-distance value="1500.0"/>
    <max-distance value="10000.0"/>
    <end value="86400.0"/>
    <period value="36.0 36.0 36.0 36.0 36.0 36.0 18.0 9.0 6.0 6.0 7.2 7.2 7.2 7.2 6.0 6.0 6.0 6.0 6.0 5.14 5.14 7.2 9.0 12.0"/>
</configuration>
-->

<!-- generated on 2023-12-22 20:06:32 by Eclipse SUMO duarouter Version 1.19.0
<configuration xmlns:xsi="http://www.w3.org/2001/XMLSchema-instance" xsi:noNamespaceSchemaLocation="http://sumo.dlr.de/xsd/duarouterConfiguration.xsd">

    <input>
        <net-file value="/Users/nikitazigman/code/jku_its/h2mob/sumo/test_scenario/osm.net.xml.gz"/>
        <additional-files value="/Users/nikitazigman/code/jku_its/h2mob/sumo/test_scenario/vehicles_types.add.xml"/>
        <route-files value="/Users/nikitazigman/code/jku_its/h2mob/sumo/test_scenario/trips.trips.xml"/>
    </input>

    <output>
        <output-file value="/Users/nikitazigman/code/jku_its/h2mob/sumo/test_scenario/routes.rou.xml"/>
        <alternatives-output value="NUL"/>
    </output>

    <time>
        <begin value="0.0"/>
        <end value="86400.0"/>
    </time>

    <report>
        <no-warnings value="true"/>
        <ignore-errors value="true"/>
        <no-step-log value="true"/>
    </report>

</configuration>
-->

<routes xmlns:xsi="http://www.w3.org/2001/XMLSchema-instance" xsi:noNamespaceSchemaLocation="http://sumo.dlr.de/xsd/routes_file.xsd">
    <vType id="original_vehicle" probability="0.90"/>
    <vehicle id="route_23_0" type="original_vehicle" depart="0.00">
        <route edges="-110751220#3 110751220#0 4364462#0 110751243 110751199 94361603 552172254 1024921733#0 -24906823#2 24362808#0 -94362562#5 -94362562#1 -130401744 -26467348 -24905535 -179426987#2 -179426987#0 -24905855#14 -24905855#13 -24905855#12 -24905855#11 -24905855#8 -24905855#5 -24905855#3 -24905855#1"/>
    </vehicle>
    <vehicle id="route_23_1" type="original_vehicle" depart="36.00">
        <route edges="1024921733#0 4364459 4364458 -39610070 -316235031 -4489570 30711450 25730707#0 4228411#7 4228411#0 4228411#1 4228411#2 4228411#3 130099423 -1231667681#2 -130450825#5 -130450825#1 -179422422#12 -430021675#14 -430021675#9 -430021675#7 -430021675#3 -430021675#0 -431436413 -24906753#5 -24906753#3"/>
    </vehicle>
    <vType id="h-vehicle" probability="0.10" color="red">
        <param key="airDragCoefficient" value="0.6"/>
        <param key="constantPowerIntake" value="100"/>
        <param key="device.battery.capacity" value="2000"/>
        <param key="frontSurfaceArea" value="5"/>
        <param key="has.battery.device" value="true"/>
        <param key="internalMomentOfInertia" value="0.01"/>
        <param key="propulsionEfficiency" value="0"/>
        <param key="radialDragCoefficient" value="0.5"/>
        <param key="recuperationEfficiency" value="0"/>
        <param key="rollDragCoefficient" value="0.01"/>
        <param key="stoppingThreshold" value="0.1"/>
        <param key="vehicleMass" value="2000"/>
    </vType>
    <vehicle id="route_23_2" type="h-vehicle" depart="72.00">
        <route edges="23874110#1 -1227577250#1 -117392581#10 -117392581#6 -117392581#5 -110751197#1 -110751220#3 24906922#0 430021678 35414132 4364458 130098958 110751227#0 24906802#0 -430021674#3 -902209575 24905644#0 24906178#0 -32545424 -24906170#6 -32545426"/>
    </vehicle>
    <vehicle id="route_23_4" type="original_vehicle" depart="144.00">
        <route edges="24906178#9 32545425 24906187#7 24906224#15 24905855#13 24905855#14 179426987#0 179426987#1 24905535 26467348 130401743 94362561#0 94362562#2 -137596685#3 -12850650 -1024921733#2 -4364460#3 -552172256#2 -30740764#3 -30740764#2 110751249#0 110751249#2 110751249#4 110751249#5 110751210#0 -130000189#2"/>
    </vehicle>
    <vehicle id="route_23_5" type="h-vehicle" depart="180.00">
        <route edges="-130444908#2 -27635432#0 -27635426#7 -27635426#4 -31890209 -24906924#3 413978789 413978817 130193815 413742245#0 413742244 130193814 413742247 413978804 413978812 413978793 30711452#0 4228411#1 4228411#2 4228411#3 4228411#4 4228411#5 4489560#0 -30711450 4489570 316235031 316235028 316235027 316235030 130098948 1089324811#0 1089324812#0 131730416 -131730417#5 -1089324812#1 -25730706#1 -130098948 -316235030 130098952"/>
    </vehicle>
    <vehicle id="route_23_6" type="original_vehicle" depart="216.00">
        <route edges="32550351#0 -110751249#4 -110751249#3 -110751249#1 -117392580#3 94361603 552172254 1024921733#0 -24906823#2 24362808#0 -94362562#5 -94362562#1 -130401744 -26467348 26467348"/>
    </vehicle>
    <vehicle id="route_23_8" type="original_vehicle" depart="288.00">
        <route edges="24905855#14 24906201#0 24906201#5 -24905680#15 179422415#0 179422415#1 179422415#4 430021674#0 110751228#0 110751206#0 110751211#0 1016632177#0 130450825#2 130450825#6 130099424 4228411#5 4228411#6 4228411#7 55497378#0 -413978793 -413978812 -413978804 -413742247 -413742243 -413742244 -413742245#1 -130193815 -413978817 -413978789 413978789 413978817"/>
    </vehicle>
    <vehicle id="route_23_9" type="original_vehicle" depart="324.00">
        <route edges="-48224475#4 48224475#4 48224475#5 37588383 431436790#0 -430021672#8 -1078804611#0 -430021687#3 -110751220#3 24906922#0 430021678 35414132 4364458 130098958 110751227#0 24906802#0 110751228#0 -32545221 -129624599#1"/>
    </vehicle>
    <vehicle id="route_23_10" type="h-vehicle" depart="360.00">
        <route edges="-27635411#1 -27635411#0 27635425#0 27635425#2 1231913573#2 -31890209 -24906924#3 -179422410#1 24906920#0 24906920#4 24906920#7 24906920#12 110751220#0 1227553082#0 110751197#2 117392581#6 117392581#7 26467249"/>
    </vehicle>
    <vehicle id="route_23_11" type="original_vehicle" depart="396.00">
        <route edges="430021675#8 430021675#10 179422422#0 1016632177#0 130450825#2 130450825#6 130099424 4228411#5 4228411#6 4228411#7 55497378#0 -413978793 -413978812 -413978804 -413742247 -413742243 -413742244 -413742245#1 -130193815 -413978817 -413978789 24906924#0 1218689452#1 27635426#0 27635426#6 27635432#0 27635432#1 27635432#2 547748731#0"/>
    </vehicle>
    <vehicle id="route_23_12" type="original_vehicle" depart="432.00">
        <route edges="-23874111#1 23874110#1 -1227577250#1 -117392581#10 -117392581#6 -117392581#5 -110751197#1 -110751220#3 -24906920#15 -24906920#11 -24906920#6 -24906920#3 179422410#0 413978789 413978817 130193815 413742245#0 413742244 130193814 413742247 413978804 413978812 413978793 30711452#0 4228411#1 4228411#2 4228411#3 130099423 -1231667681#2 -130450825#5 -130450825#1 -110751233#12 -110751233#7 -431436419#16 24906717#0 24906717#5"/>
    </vehicle>
    <vehicle id="route_23_13" type="original_vehicle" depart="468.00">
        <route edges="24906785#3 24906785#23 -24906785#2 430021675#1 430021675#4 430021675#8 430021675#10 179422422#0 1016632177#0 130450825#2 130450825#6 130099424 4228411#5 4228411#6 4228411#7 55497378#0 -413978793 -413978812 -413978804 -413742247 -413742243 -413742244 -413742245#1 -130193815 -413978817 -413978789 -179422410#1 24906920#0 24906920#4 24906920#7 24906920#12 110751220#0 1227553082#0 110751197#2 -117392581#5"/>
    </vehicle>
    <vehicle id="route_23_14" type="original_vehicle" depart="504.00">
        <route edges="48224475#0 -48224475#0 -902209595#1 -27742488#20 -902209594#1 -430021687#3 -110751220#3 24906922#0 430021678 35414132 4364458 130098958 110751227#0 24906802#0 110751228#0 -32545221 -129624599#1 24906313#0"/>
    </vehicle>
    <vehicle id="route_23_15" type="original_vehicle" depart="540.00">
        <route edges="430021678 35414132 4364458 -39610070 -316235031 -4489570 30711450 25730707#0 4228411#7 4228411#0 4228411#1 4228411#2 4228411#3 130099423 -1231667681#2 -130450825#5 -130450825#1 -110751233#12 -110751233#7 -430021695#1 -24906754#5"/>
    </vehicle>
    <vehicle id="route_23_17" type="original_vehicle" depart="612.00">
        <route edges="-902209575 430021690#0 430021674#0 -24906802#1 -24906402#1 24906411 130098963#0 130098963#1 -35414132 -130096976 -24906922#1 110751220#0 4364462#0 110751243"/>
    </vehicle>
    <vehicle id="route_23_18" type="original_vehicle" depart="648.00">
        <route edges="-24905645#1 24905637#8 30713060#0 30713060#2 24905454#0 24905450#0 24905450#3 -110751198#3 179422422#0 1016632177#0 130450825#2 130450825#6 130099424 4228411#5 4228411#6 4228411#7 55497378#0 -413978793 -413978812 -413978804 -413742247 -413742243 -413742244 -413742245#1 -130193815 -413978817 -413978789 413978789"/>
    </vehicle>
    <vehicle id="route_23_19" type="original_vehicle" depart="684.00">
        <route edges="29210243#4 -29210243#4 -29210243#3 110744622#2 129704182#0 547751980#0 1193796115#0 117394552 547951939#0 49431326#0 -186092020 -186092007 -179426985 -186092023#1 -186092023#0 186092017#0 47370209 102545031 186092013 -27018811 -386495615 -102545041 -102545048 47370207 -47360947 -30711451 -30711450 4489570 316235031"/>
    </vehicle>
    <vehicle id="route_23_20" type="h-vehicle" depart="720.00">
        <route edges="29589786#0 -29589786#5 413978808#0 67263975#0 413978810 179422410#0 413978789 413978817 130193815 413742245#0 413742244 130193814 413742247 413978804 413978812 413978793 30711452#0 4228411#1 4228411#2 4228411#3 130099423 -1231667681#2 -130450825#5 -130450825#1 -110751211#5 -430021692#5 -110751228#1 -430021674#3 -179422415#5 -179422415#3 24905650#0 24906210#0 24906210#16 -24906210#21"/>
    </vehicle>
    <vehicle id="route_23_21" type="original_vehicle" depart="756.00">
        <route edges="-24906833#10 -24906833#6 -1227545261#7 -1227545261#4 -110751210#2 -110751249#5 -110751249#4 -110751249#3 -110751249#1 -117392580#3 94361603 552172254 1024921733#0 4364459 4364458 -39610070 -316235031 -4489570 30711450 25730707#0 4228411#7 4228411#0 4228411#1 4228411#2 4228411#3 130099423 -1231667681#2 -130450825#5 -130450825#1 -179422422#12 -179426989#3 -179422419#4 24905514#0 24905514#3 555798702#0 26467497#0"/>
    </vehicle>
    <vehicle id="route_23_22" type="original_vehicle" depart="792.00">
        <route edges="555798702#0 -555798702#1 -24905514#5 -24905514#2 -110751198#5 -110751198#3 179422422#0 1016632177#0 130450825#2 130450825#6 130099424 4228411#5 4489560#0 -30711450 4489570 316235031 316235028 130098963#0 130098963#1 -58654875 -1024921733#2 -4364460#3 -552172256#2 -30740764#3 -30740764#2 110751249#0 110751249#2"/>
    </vehicle>
    <vehicle id="route_23_23" type="original_vehicle" depart="828.00">
        <route edges="-102545031 102545031 186092013 -27018811 -386495615 -102545041 -102545048 47370207 30711453 4228411#3 130099423 -1231667681#2 -130450825#5 -130450825#1 -110751211#5 -430021692#5 -110751228#1 -430021674#3 -179422415#5 -179422415#3 24905650#0 24906210#0"/>
    </vehicle>
    <vehicle id="route_23_24" type="original_vehicle" depart="864.00">
        <route edges="-179426989#3 179426989#0 179422422#0 1016632177#0 130450825#2 130450825#6 130099424 4228411#5 4489560#0 -30711450 4489570 316235031 316235028 130098963#0 130098963#1 -58654875 -1024921733#2 -4364460#3 -552172256#2 -30740764#3 -30740764#2 110751249#0 110751249#2"/>
    </vehicle>
    <vehicle id="route_23_25" type="original_vehicle" depart="900.00">
        <route edges="37588383 431436790#0 -430021672#8 -1078804611#0 -430021687#3 -110751220#3 -24906920#15 -24906920#11 -24906920#6 -24906920#3 179422410#0 413978789 413978817 130193815 413742245#0 413742244 130193814 413742247 413978804 413978812 413978793 30711452#0 4228411#1 4228411#2 4228411#3 130099423 -1231667681#2 -130450825#5 -130450825#1 -110751233#12 -110751233#7 110751233#0"/>
    </vehicle>
    <vehicle id="route_23_26" type="original_vehicle" depart="936.00">
        <route edges="-110751199 -374119886 -4364462#3 -110751220#3 -24906920#15 -24906920#11 -24906920#6 -24906920#3 179422410#0 413978789 413978817 130193815 413742245#0 413742244 130193814 413742247 413978804 413978812 413978793 30711452#0 4228411#1 4228411#2 4228411#3 130099423 -1231667681#2 -130450825#5 -130450825#1 -110751233#12 24906744#0 24906744#1 24906744#2 -24906791#7"/>
    </vehicle>
    <vehicle id="route_23_27" type="original_vehicle" depart="972.00">
        <route edges="-902209594#1 -430021687#3 -110751220#3 -24906920#15 -24906920#11 -24906920#6 -24906920#3 179422410#0 413978789 413978817 130193815 413742245#0 413742244 130193814 413742247 413978804 413978812 413978793 130099426#0 386495618 179426988 -186092000 102545048 102545041 -47370208 27018811 -186092013 -102545031 -47370209 -186092017#1 186092001 186092023#1 49431327 49431326#0"/>
    </vehicle>
    <vehicle id="route_23_28" type="original_vehicle" depart="1008.00">
        <route edges="1016632177#0 130450825#2 130450825#6 130099424 4228411#5 4228411#6 4228411#7 55497378#0 -413978793 -413978812 -413978804 -413742247 -413742243 -413742244 -413742245#1 -130193815 -413978817 -413978789 24906924#0 143086134#0"/>
    </vehicle>
    <vehicle id="route_23_29" type="original_vehicle" depart="1044.00">
        <route edges="24906894#5 32550351#0 -110751249#4 -110751249#3 -110751249#1 -117392580#3 94361603 552172254 1024921733#0 4364459 4364458 -39610070 -316235031 -4489570 30711450 25730707#0 4228411#7 55497378#0 -413978793"/>
    </vehicle>
    <vehicle id="route_23_30" type="h-vehicle" depart="1080.00">
        <route edges="-23874110#15 23874110#1 -1227577250#1 -117392581#10 -117392581#6 -117392581#5 -110751197#1 -110751220#3 -24906920#15 -24906920#11 -24906920#6 -24906920#3 179422410#0 413978789 413978817 130193815 413742245#0 413742244 130193814 413742247 413978804 413978812 413978793 30711452#0 4228411#1 4228411#2 4228411#3 130099423 -1231667681#2 -130450825#5 -130450825#1 -179422422#12 -179426989#3 -131349686#1 -553571574#3"/>
    </vehicle>
    <vehicle id="route_23_31" type="original_vehicle" depart="1116.00">
        <route edges="-1231913573#4 1231913573#2 -31890209 -24906924#3 -179422410#1 24906920#0 24906920#4 24906920#7 24906920#12 110751220#0 27742485 902209594#0 430021684#0 27742499#0"/>
    </vehicle>
    <vehicle id="route_23_32" type="original_vehicle" depart="1152.00">
        <route edges="35414484#1 35414408#0 35414406 110751213 -32695446 40036701#1 40036701#4 -130450825#1 -179422422#12 -179426989#3 -179422419#4 24905514#0 24905514#3 555798702#0 26467497#0 26467497#17 26467497#19 24906154#13 24906154#14 24906154#20 24905855#0 -24905855#1"/>
    </vehicle>
    <vehicle id="route_23_33" type="original_vehicle" depart="1188.00">
        <route edges="-186092023#1 -186092023#0 186092017#0 47370209 102545031 186092013 -27018811 -386495615 -102545041 -102545048 47370207 30711453 4228411#3 130099423 -1231667681#2 -130450825#5 -130450825#1 -179422422#12 4228456#0 -24905450#11 -24905450#2 -24905454#2 -30713060#6 -30713060#1 -431436422 24905645#0"/>
    </vehicle>
    <vehicle id="route_23_34" type="original_vehicle" depart="1224.00">
        <route edges="130869318 186092522 15802676 15802676-AddedOffRampEdge 186092519 47370207 30711453 4228411#3 4228411#4 4228411#5 4228411#6 4228411#7 55497378#0 -413978793 -413978812 -413978804 -413742247 -413742243 -413742244 -413742245#1 -130193815 -413978817 -413978789 -179422410#1 24906920#0 24906920#4 24906920#7 24906920#12 110751220#0 27742485 902209594#0 27742488#0 902209595#0 48224475#0 -48224475#0 -902209595#1"/>
    </vehicle>
    <vehicle id="route_23_35" type="h-vehicle" depart="1260.00">
        <route edges="-24906673#5 24906667#6 24906667#7 24906667#10 553571574#4 179426989#0 179422422#0 1016632177#0 130450825#2 130450825#6 130099424 4228411#5 4489560#0 -30711450 4489570 316235031 316235028 130098963#0 130098963#1 -58654875 -1024921733#2 1024921733#0"/>
    </vehicle>
    <vehicle id="route_23_36" type="original_vehicle" depart="1296.00">
        <route edges="-24906178#18 -24906178#9 -32545424 -24906170#6 -32545426 -24906154#13 -26467497#19 -26467497#18 -26467497#16 -555798702#1 -24905514#5 -24905514#2 -110751198#5 -110751198#3 179422422#0 1016632177#0 130450825#2 130450825#6 130099424 4228411#5 4228411#6 4228411#7 55497378#0 -413978793 -413978812 -413978804 -413742247 -413742243 -413742244 -413742245#1 -130193815 -413978817 -413978789 -179422410#1 24906920#0 24906920#4 24906920#7 -24906920#11"/>
    </vehicle>
    <vehicle id="route_23_37" type="original_vehicle" depart="1332.00">
        <route edges="-110751198#5 -110751198#3 179422422#0 1016632177#0 130450825#2 130450825#6 130099424 4228411#5 4489560#0 -30711450 4489570 316235031 316235028 130098963#0 130098963#1 -58654875 -1024921733#2 -4364460#3 -552172256#2 -30740764#3 -30740764#2 32550350#0 32550350#5 24906894#0 -41402936 -41402937#2"/>
    </vehicle>
    <vehicle id="route_23_38" type="original_vehicle" depart="1368.00">
        <route edges="-102545041 -102545048 47370207 30711453 4228411#3 130099423 -1231667681#2 -130450825#5 -130450825#1 -179422422#12 -179426989#3 -179422419#4 24905514#0 24905514#3 555798702#0 26467497#0 26467497#17 26467497#19 24906154#13 24906154#14 24906154#20 24905855#0 24905855#2 24905855#4 24905855#6 24905855#9 24905855#12"/>
    </vehicle>
    <vehicle id="route_23_39" type="original_vehicle" depart="1404.00">
        <route edges="-131821574#2 24905855#6 24905855#9 24905855#12 24905855#13 24905855#14 179426987#0 179426987#1 24905535 26467348 130401743 94362561#0 94362562#2 -137596685#3 -12850650 -1024921733#2 -552172254 -94361603 -110751199 -374119886 -4364462#3 1227553082#0 110751197#2 117392581#6 117392581#7 26467249 -23874110#15 -23874110#0 117392579#0 -117392579#1 23874110#0"/>
    </vehicle>
    <vehicle id="route_23_40" type="original_vehicle" depart="1440.00">
        <route edges="-24906894#8 24906894#5 32550351#0 -110751249#4 -110751249#3 -110751249#1 -117392580#3 94361603 552172254 1024921733#0 4364459 4364458 -39610070 -316235031 -4489570 30711450 25730707#0 4228411#7 4228411#0 4228411#1 4228411#2 4228411#3 130099423 -1231667681#2 -130450825#5 -130450825#1 -179422422#12 -430021675#14 -430021675#9 -430021675#7 -430021675#3 24906785#0 24906785#3 24906785#23"/>
    </vehicle>
    <vehicle id="route_23_41" type="original_vehicle" depart="1476.00">
        <route edges="430021676#5 430021678 35414132 4364458 130098958 110751227#0 24906802#0 -430021674#3 -179422415#5 -179422415#3 24905650#0 -24905650#13"/>
    </vehicle>
    <vehicle id="route_23_42" type="original_vehicle" depart="1512.00">
        <route edges="-186092017#1 186092001 -186092023#0 186092017#0 47370209 102545031 186092013 -27018811 -386495615 -102545041 -102545048 47370207 30711453 4228411#3 130099423 -1231667681#2 -130450825#5 -130450825#1 -110751211#5 -430021692#5 -110751228#1 -430021674#3 -179422415#5 -179422415#3 -179422415#0 -430021679 430021679"/>
    </vehicle>
    <vehicle id="route_23_43" type="original_vehicle" depart="1548.00">
        <route edges="-117392583#7 29087216 -117392581#5 -110751197#1 -110751220#3 -24906920#15 -24906920#11 -24906920#6 -24906920#3 179422410#0 413978789 413978817 130193815 413742245#0 413742244 130193814 413742247 413978804 413978812 413978793 30711452#0 4228411#1 4228411#2 4228411#3 130099423 -1231667681#2 -130450825#5 -130450825#1 -110751233#12 -110751233#7 -430021695#1 -430021694#2 24906753#0 -24906753#1"/>
    </vehicle>
    <vehicle id="route_23_44" type="original_vehicle" depart="1584.00">
        <route edges="-902209596#5 -27742488#20 -902209594#1 -430021687#3 -110751220#3 -24906920#15 -24906920#11 -24906920#6 -24906920#3 179422410#0 413978789 413978817 130193815 413742245#0 413742244 130193814 413742247 413978804 413978812 413978793 30711452#0 4228411#1 4228411#2 4228411#3 130099423 -1231667681#2 -130450825#5 -130450825#1 -179422422#12 -179426989#3 -131349686#1 -430021680 -24906672#1"/>
    </vehicle>
    <vehicle id="route_23_45" type="original_vehicle" depart="1620.00">
        <route edges="-29583768#5 -29583768#0 -27635432#1 -27635432#0 -27635426#7 -27635426#4 -31890209 -24906924#3 413978789 413978817 130193815 413742245#0 413742244 130193814 413742247 413978804 413978812 413978793 30711452#0 4228411#1 4228411#2 4228411#3 130099423 -1231667681#2 -130450825#5 -130450825#1 -110751233#12 24906744#0 24906744#1 30335433#0 24906770#1 24906770#4"/>
    </vehicle>
    <vehicle id="route_23_46" type="original_vehicle" depart="1656.00">
        <route edges="-24906803 -24906802#1 -24906402#1 24906411 130098963#0 130098963#1 -35414132 -130096976 -24906922#1 110751220#0 1227553082#0 110751197#2 -117392581#5"/>
    </vehicle>
    <vehicle id="route_23_49" type="original_vehicle" depart="1764.00">
        <route edges="-27742412 -27742409#0 1193796115#0 117394552 547951939#0 49431326#0 -186092020 -186092007 -179426985 -186092023#1 -186092023#0 186092017#0 47370209 102545031 186092013 -27018811 -386495615 -102545041 -102545048 47370207 30711453 4228411#3 130099423 -1231667681#2 -130450825#5 -130450825#1 -110751211#5 -430021692#5 -110751228#1 -430021674#3 -179422415#5 -179422415#3 -179422415#0 -430021679 430021679"/>
    </vehicle>
    <vehicle id="route_23_50" type="original_vehicle" depart="1800.00">
        <route edges="-24906210#21 24906210#16 24905855#14 179426987#0 179426987#1 24905535 26467348 130401743 94362561#0 94362562#2 -137596685#3 -29592152#3 552172258#3"/>
    </vehicle>
    <vehicle id="route_23_52" type="original_vehicle" depart="1872.00">
        <route edges="35414484#0 35414484#1 35414408#0 35414406 110751213 -32695446 -24906704#4 32545216#6 130450825#6 130099424 4228411#5 4228411#6 4228411#7 55497378#0 -413978793 -413978812 -413978804 -413742247 -413742243 -413742244 -413742245#1 -130193815 -413978817 -413978789 -179422410#1 24906920#0 24906920#4 24906920#7 24906920#12 110751220#0 27742485 1078804611#0 430021672#0 -430021672#8"/>
    </vehicle>
    <vehicle id="route_23_53" type="original_vehicle" depart="1908.00">
        <route edges="-24906224#14 430021683#7 430021683#9 -24905680#15 -430021679 -179426984#2 -129624596 26467348 130401743 94362561#0 94362562#2 -137596685#3 -12850650 -1024921733#2 -4364460#3 -552172256#2 -30740764#3 -30740764#2 110751249#0 110751249#2 110751249#4 110751249#5 110751210#0 110751194#0 1227545261#5 110751214"/>
    </vehicle>
    <vehicle id="route_23_54" type="original_vehicle" depart="1944.00">
        <route edges="-24906791#7 24906791#0 -24906744#3 -24906744#1 -24906744#0 110751233#9 1016632177#0 130450825#2 130450825#6 130099424 4228411#5 4228411#6 4228411#7 55497378#0 -413978793 -413978812 -413978804 -413742247 -413742243 -413742244 -413742245#1 -130193815 -413978817 -413978789 24906924#0 1218689452#1 27635426#0 29583819#0"/>
    </vehicle>
    <vehicle id="route_23_55" type="original_vehicle" depart="1980.00">
        <route edges="-27635417 -27635411#0 27635425#0 27635425#2 1231913573#2 -31890209 -24906924#3 -179422410#1 24906920#0 24906920#4 24906920#7 24906920#12 110751220#0 27742485 1078804611#0 1078804611#2 37588378#0 -431436790#1 -37588383 -431436792#8"/>
    </vehicle>
    <vehicle id="route_23_56" type="original_vehicle" depart="2016.00">
        <route edges="-24906178#9 -24906178#8 -24905644#11 430021690#0 430021674#0 -24906802#1 -24906402#1 24906411 130098963#0 130098963#1 -35414132 -130096976 -24906922#1 110751220#0 27742485 902209594#0 27742488#0 902209595#0 48224475#0 48224475#1 48224475#2 -48224475#2"/>
    </vehicle>
    <vehicle id="route_23_57" type="original_vehicle" depart="2052.00">
        <route edges="24906224#0 -24906187#14 -32545425 -24906178#9 -32545424 -24906170#6 -32545426 -24906154#13 -26467497#19 -26467497#18 -26467497#16 -555798702#1 -24905514#5 -24905514#2 -110751198#5 -110751198#3 179422422#0 1016632177#0 130450825#2 130450825#6 130099424 4228411#5 4228411#6 4228411#7 4228411#0 4228411#1 130099422 386495618 179426988 -186092000 102545048 102545041 -47370208 27018811 -186092013"/>
    </vehicle>
    <vehicle id="route_23_58" type="original_vehicle" depart="2088.00">
        <route edges="24905637#4 24905637#8 430021690#0 430021674#0 -24906802#1 -24906402#1 24906411 130098963#0 130098963#1 -35414132 -130096976 -24906922#1 110751220#0 1227553082#0"/>
    </vehicle>
    <vehicle id="route_23_59" type="original_vehicle" depart="2124.00">
        <route edges="-552172255 -137596685#3 -12850650 4364459 -35414132 -386495611#3 130193833 30712581#1 30712581#3 1227607451 555252198#0"/>
    </vehicle>
    <vehicle id="route_23_60" type="original_vehicle" depart="2160.00">
        <route edges="24906154#14 24906154#20 24905855#0 24905855#2 24905855#4 24905855#6 24905855#9 24905855#12 24905855#13 24905855#14 179426987#0 179426987#1 24905535 26467348 130401743 94362561#0 94362562#2 -137596685#3 -12850650 -1024921733#2 -552172254 -94361603 -110751199 -374119886 -4364462#3 27742485 902209594#0 -902209594#1"/>
    </vehicle>
    <vehicle id="route_23_61" type="original_vehicle" depart="2196.00">
        <route edges="29210243#0 -29210243#3 110744622#2 129704182#0 547751980#0 1193796115#0 117394552 547951939#0 49431326#0 -186092020 -186092007 -179426985 -186092023#1 -186092023#0 186092017#0 47370209 102545031 186092013 -27018811 -386495615 -102545041 -102545048 47370207 30711453 4228411#3 130099423 -1231667681#2 -130450825#5 -130450825#1 -110751233#12 24906744#0 -24906744#0"/>
    </vehicle>
    <vehicle id="route_23_62" type="original_vehicle" depart="2232.00">
        <route edges="24905855#14 24906201#0 24906201#5 -24905680#15 179422415#0 179422415#1 179422415#4 430021674#0 110751228#0 110751206#0 110751211#0 1016632177#0 130450825#2 130450825#6 130099424 4228411#5 4228411#6 4228411#7 4228411#0 4228411#1 130099422 386495618 179426988 -186092000"/>
    </vehicle>
    <vehicle id="route_23_63" type="h-vehicle" depart="2268.00">
        <route edges="-27635411#0 27635425#0 27635425#2 1231913573#2 -31890209 -24906924#3 -179422410#1 24906920#0 24906920#4 24906920#7 24906920#12 110751220#0 1227553082#0 -110751197#1"/>
    </vehicle>
    <vehicle id="route_23_65" type="original_vehicle" depart="2340.00">
        <route edges="553571574#0 553571574#1 553571574#4 179426989#0 179422422#0 1016632177#0 130450825#2 130450825#6 130099424 4228411#5 4228411#6 4228411#7 4228411#0 4228411#1 130099422 386495618 179426988 -186092000 102545048 102545041 -47370208 27018811 -186092013 -102545031 -47370209 -186092017#1 186092001 186092023#1 179426985 186092007 186092020 -186092020"/>
    </vehicle>
    <vehicle id="route_23_66" type="original_vehicle" depart="2376.00">
        <route edges="-110751249#4 -110751249#3 -110751249#1 -117392580#3 94361603 552172254 1024921733#0 4364459 4364458 130098958 110751227#0 24906802#0"/>
    </vehicle>
    <vehicle id="route_23_67" type="h-vehicle" depart="2412.00">
        <route edges="-431436419#13 110751213 -32695446 -24906704#4 32545216#6 130450825#6 130099424 4228411#5 4489560#0 -30711450 4489570 316235031 316235028 130098963#0 130098963#1 -58654875 -1024921733#2 -4364460#3 -552172256#2 -30740764#3 -30740764#2 110751249#0 110751249#2 110751249#4 110751249#5 110751210#0 110751194#0 1227545261#5"/>
    </vehicle>
    <vehicle id="route_23_68" type="original_vehicle" depart="2448.00">
        <route edges="131824315 -24905645#1 24905637#8 30713060#0 30713060#2 24905454#0 24905450#0 24905450#3 -110751198#3 179422422#0 1016632177#0 130450825#2 130450825#6 130099424 4228411#5 4228411#6 4228411#7 55497378#0 -413978793 -413978812 -413978804 -413742247 -413742243 -413742244 -413742245#1 413742252#0 30712581#0 30712581#1 30712581#3 1227607451 555252198#0 -29590610#7"/>
    </vehicle>
    <vehicle id="route_23_70" type="original_vehicle" depart="2520.00">
        <route edges="110751249#4 -110751249#4 -110751249#3 -110751249#1 -117392580#3 94361603 552172254 1024921733#0 4364459 4364458 -39610070 -316235031 -4489570"/>
    </vehicle>
    <vehicle id="route_23_71" type="original_vehicle" depart="2556.00">
        <route edges="-25730706#1 -130098948 -316235030 -316235027 -39610070 -316235031 -4489570 30711450 25730707#0 4228411#7 55497378#0 -413978793 -413978812 -413978804 -413742247 -413742243 -413742244 -413742245#1 -130193815 -413978817 -413978789 24906924#0 1218689452#1 -1231913573#4 -1231913573#1 -27635425#1"/>
    </vehicle>
    <vehicle id="route_23_72" type="h-vehicle" depart="2592.00">
        <route edges="130352380#0 1231913573#2 -31890209 -24906924#3 413978789 413978817 130193815 413742245#0 413742244 130193814 413742247 413978804 413978812 413978793 30711452#0 4228411#1 4228411#2 4228411#3 130099423 -1231667681#2 -130450825#5 -130450825#1 -110751211#5 -430021692#5 -110751228#1 -430021674#3 -179422415#5 -179422415#3 -179422415#0 24905680#0 -24906201#21 -24906201#4 179426987#0"/>
    </vehicle>
    <vehicle id="route_23_73" type="original_vehicle" depart="2628.00">
        <route edges="23874110#0 23874110#1 -1227577250#1 -117392581#10 -117392581#6 -117392581#5 -110751197#1 -110751220#3 -24906920#15 -24906920#11 -24906920#6 -24906920#3 179422410#0 413978789 413978817 130193815 413742245#0 413742244 130193814 413742247 413978804 413978812 413978793 130099426#0 386495618 179426988 -186092000 102545048 102545041 -47370208 27018811 -186092013 -102545031 -47370209 -186092017#1 186092001 186092023#1 49431327 -547951939#1 -117394552 -1231699233 -547751980#1 -129704182#2 -110744622#3 29210243#0"/>
    </vehicle>
    <vehicle id="route_23_74" type="original_vehicle" depart="2664.00">