<?xml version="1.0" encoding="UTF-8"?>

<!-- generated on 2023-12-22 20:06:31.888523 by randomTrips.py UNKNOWN
<configuration>
    <net-file value="/Users/nikitazigman/code/jku_its/h2mob/sumo/test_scenario/osm.net.xml.gz"/>
    <additional-files value="/Users/nikitazigman/code/jku_its/h2mob/sumo/test_scenario/vehicles_types.add.xml"/>
    <output-trip-file value="/Users/nikitazigman/code/jku_its/h2mob/sumo/test_scenario/trips.trips.xml"/>
    <route-file value="/Users/nikitazigman/code/jku_its/h2mob/sumo/test_scenario/routes.rou.xml"/>
    <prefix value="route_23_"/>
    <trip-attributes value="type='vehicle_distribution'"/>
    <random value="True"/>
    <min-distance value="1500.0"/>
    <max-distance value="10000.0"/>
    <end value="86400.0"/>
    <period value="36.0 36.0 36.0 36.0 36.0 36.0 18.0 9.0 6.0 6.0 7.2 7.2 7.2 7.2 6.0 6.0 6.0 6.0 6.0 5.14 5.14 7.2 9.0 12.0"/>
</configuration>
-->

<routes xmlns:xsi="http://www.w3.org/2001/XMLSchema-instance" xsi:noNamespaceSchemaLocation="http://sumo.dlr.de/xsd/routes_file.xsd">
    <trip id="route_23_0" depart="0.00" from="-110751220#3" to="-24905855#1" type='vehicle_distribution'/>
    <trip id="route_23_1" depart="36.00" from="1024921733#0" to="-24906753#3" type='vehicle_distribution'/>
    <trip id="route_23_2" depart="72.00" from="23874110#1" to="-32545426" type='vehicle_distribution'/>
    <trip id="route_23_3" depart="108.00" from="24906833#0" to="523639850" type='vehicle_distribution'/>
    <trip id="route_23_4" depart="144.00" from="24906178#9" to="-130000189#2" type='vehicle_distribution'/>
    <trip id="route_23_5" depart="180.00" from="-130444908#2" to="130098952" type='vehicle_distribution'/>
    <trip id="route_23_6" depart="216.00" from="32550351#0" to="26467348" type='vehicle_distribution'/>
    <trip id="route_23_7" depart="252.00" from="-27997918#0" to="-4364460#3" type='vehicle_distribution'/>
    <trip id="route_23_8" depart="288.00" from="24905855#14" to="413978817" type='vehicle_distribution'/>
    <trip id="route_23_9" depart="324.00" from="-48224475#4" to="-129624599#1" type='vehicle_distribution'/>
    <trip id="route_23_10" depart="360.00" from="-27635411#1" to="26467249" type='vehicle_distribution'/>
    <trip id="route_23_11" depart="396.00" from="430021675#8" to="547748731#0" type='vehicle_distribution'/>
    <trip id="route_23_12" depart="432.00" from="-23874111#1" to="24906717#5" type='vehicle_distribution'/>
    <trip id="route_23_13" depart="468.00" from="24906785#3" to="-117392581#5" type='vehicle_distribution'/>
    <trip id="route_23_14" depart="504.00" from="48224475#0" to="24906313#0" type='vehicle_distribution'/>
    <trip id="route_23_15" depart="540.00" from="430021678" to="-24906754#5" type='vehicle_distribution'/>
    <trip id="route_23_16" depart="576.00" from="15802689#1-AddedOnRampEdge" to="-130209292#2" type='vehicle_distribution'/>
    <trip id="route_23_17" depart="612.00" from="-902209575" to="110751243" type='vehicle_distribution'/>
    <trip id="route_23_18" depart="648.00" from="-24905645#1" to="413978789" type='vehicle_distribution'/>
    <trip id="route_23_19" depart="684.00" from="29210243#4" to="316235031" type='vehicle_distribution'/>
    <trip id="route_23_20" depart="720.00" from="29589786#0" to="-24906210#21" type='vehicle_distribution'/>
    <trip id="route_23_21" depart="756.00" from="-24906833#10" to="26467497#0" type='vehicle_distribution'/>
    <trip id="route_23_22" depart="792.00" from="555798702#0" to="110751249#2" type='vehicle_distribution'/>
    <trip id="route_23_23" depart="828.00" from="-102545031" to="24906210#0" type='vehicle_distribution'/>
    <trip id="route_23_24" depart="864.00" from="-179426989#3" to="110751249#2" type='vehicle_distribution'/>
    <trip id="route_23_25" depart="900.00" from="37588383" to="110751233#0" type='vehicle_distribution'/>
    <trip id="route_23_26" depart="936.00" from="-110751199" to="-24906791#7" type='vehicle_distribution'/>
    <trip id="route_23_27" depart="972.00" from="-902209594#1" to="49431326#0" type='vehicle_distribution'/>
    <trip id="route_23_28" depart="1008.00" from="1016632177#0" to="143086134#0" type='vehicle_distribution'/>
    <trip id="route_23_29" depart="1044.00" from="24906894#5" to="-413978793" type='vehicle_distribution'/>
    <trip id="route_23_30" depart="1080.00" from="-23874110#15" to="-553571574#3" type='vehicle_distribution'/>
    <trip id="route_23_31" depart="1116.00" from="-1231913573#4" to="27742499#0" type='vehicle_distribution'/>
    <trip id="route_23_32" depart="1152.00" from="35414484#1" to="-24905855#1" type='vehicle_distribution'/>
    <trip id="route_23_33" depart="1188.00" from="-186092023#1" to="24905645#0" type='vehicle_distribution'/>
    <trip id="route_23_34" depart="1224.00" from="130869318" to="-902209595#1" type='vehicle_distribution'/>
    <trip id="route_23_35" depart="1260.00" from="-24906673#5" to="1024921733#0" type='vehicle_distribution'/>
    <trip id="route_23_36" depart="1296.00" from="-24906178#18" to="-24906920#11" type='vehicle_distribution'/>
    <trip id="route_23_37" depart="1332.00" from="-110751198#5" to="-41402937#2" type='vehicle_distribution'/>
    <trip id="route_23_38" depart="1368.00" from="-102545041" to="24905855#12" type='vehicle_distribution'/>
    <trip id="route_23_39" depart="1404.00" from="-131821574#2" to="23874110#0" type='vehicle_distribution'/>
    <trip id="route_23_40" depart="1440.00" from="-24906894#8" to="24906785#23" type='vehicle_distribution'/>
    <trip id="route_23_41" depart="1476.00" from="430021676#5" to="-24905650#13" type='vehicle_distribution'/>
    <trip id="route_23_42" depart="1512.00" from="-186092017#1" to="430021679" type='vehicle_distribution'/>
    <trip id="route_23_43" depart="1548.00" from="-117392583#7" to="-24906753#1" type='vehicle_distribution'/>
    <trip id="route_23_44" depart="1584.00" from="-902209596#5" to="-24906672#1" type='vehicle_distribution'/>
    <trip id="route_23_45" depart="1620.00" from="-29583768#5" to="24906770#4" type='vehicle_distribution'/>
    <trip id="route_23_46" depart="1656.00" from="-24906803" to="-117392581#5" type='vehicle_distribution'/>
    <trip id="route_23_47" depart="1692.00" from="15802689#1-AddedOnRampEdge" to="24906900#0" type='vehicle_distribution'/>
    <trip id="route_23_48" depart="1728.00" from="-27997951" to="-130000191#1" type='vehicle_distribution'/>
    <trip id="route_23_49" depart="1764.00" from="-27742412" to="430021679" type='vehicle_distribution'/>
    <trip id="route_23_50" depart="1800.00" from="-24906210#21" to="552172258#3" type='vehicle_distribution'/>
    <trip id="route_23_51" depart="1836.00" from="30713403" to="-430023368#13" type='vehicle_distribution'/>
    <trip id="route_23_52" depart="1872.00" from="35414484#0" to="-430021672#8" type='vehicle_distribution'/>
    <trip id="route_23_53" depart="1908.00" from="-24906224#14" to="110751214" type='vehicle_distribution'/>
    <trip id="route_23_54" depart="1944.00" from="-24906791#7" to="29583819#0" type='vehicle_distribution'/>
    <trip id="route_23_55" depart="1980.00" from="-27635417" to="-431436792#8" type='vehicle_distribution'/>
    <trip id="route_23_56" depart="2016.00" from="-24906178#9" to="-48224475#2" type='vehicle_distribution'/>
    <trip id="route_23_57" depart="2052.00" from="24906224#0" to="-186092013" type='vehicle_distribution'/>
    <trip id="route_23_58" depart="2088.00" from="24905637#4" to="1227553082#0" type='vehicle_distribution'/>
    <trip id="route_23_59" depart="2124.00" from="-552172255" to="555252198#0" type='vehicle_distribution'/>
    <trip id="route_23_60" depart="2160.00" from="24906154#14" to="-902209594#1" type='vehicle_distribution'/>
    <trip id="route_23_61" depart="2196.00" from="29210243#0" to="-24906744#0" type='vehicle_distribution'/>
    <trip id="route_23_62" depart="2232.00" from="24905855#14" to="-186092000" type='vehicle_distribution'/>
    <trip id="route_23_63" depart="2268.00" from="-27635411#0" to="-110751197#1" type='vehicle_distribution'/>
    <trip id="route_23_64" depart="2304.00" from="24905637#1" to="27997918#0" type='vehicle_distribution'/>
    <trip id="route_23_65" depart="2340.00" from="553571574#0" to="-186092020" type='vehicle_distribution'/>
    <trip id="route_23_66" depart="2376.00" from="-110751249#4" to="24906802#0" type='vehicle_distribution'/>
    <trip id="route_23_67" depart="2412.00" from="-431436419#13" to="1227545261#5" type='vehicle_distribution'/>
    <trip id="route_23_68" depart="2448.00" from="131824315" to="-29590610#7" type='vehicle_distribution'/>
    <trip id="route_23_69" depart="2484.00" from="-27997927#1" to="-12850650" type='vehicle_distribution'/>
    <trip id="route_23_70" depart="2520.00" from="110751249#4" to="-4489570" type='vehicle_distribution'/>
    <trip id="route_23_71" depart="2556.00" from="-25730706#1" to="-27635425#1" type='vehicle_distribution'/>
    <trip id="route_23_72" depart="2592.00" from="130352380#0" to="179426987#0" type='vehicle_distribution'/>
    <trip id="route_23_73" depart="2628.00" from="23874110#0" to="29210243#0" type='vehicle_distribution'/>
    <trip id="route_23_74" depart="2664.00" from="110751220#0" to="-29210243#4" type='vehicle_distribution'/>
    <trip id="route_23_75" depart="2700.00" from="-37588382#8" to="1147407326#6" type='vehicle_distribution'/>
    <trip id="route_23_76" depart="2736.00" from="1197549801" to="-430023368#13" type='vehicle_distribution'/>
    <trip id="route_23_77" depart="2772.00" from="-555798702#10" to="110751249#4" type='vehicle_distribution'/>
    <trip id="route_23_78" depart="2808.00" from="130098962" to="29583790#2" type='vehicle_distribution'/>
    <trip id="route_23_79" depart="2844.00" from="-24905547#5" to="23874111#0" type='vehicle_distribution'/>
    <trip id="route_23_80" depart="2880.00" from="-430021674#3" to="-137596685#3" type='vehicle_distribution'/>
    <trip id="route_23_81" depart="2916.00" from="1089324811#0" to="35414407#3" type='vehicle_distribution'/>
    <trip id="route_23_82" depart="2952.00" from="-27939609#1" to="-24906833#6" type='vehicle_distribution'/>
    <trip id="route_23_83" depart="2988.00" from="-24906776#7" to="110751249#0" type='vehicle_distribution'/>
    <trip id="route_23_84" depart="3024.00" from="-29589781#8" to="431436419#14" type='vehicle_distribution'/>
    <trip id="route_23_85" depart="3060.00" from="130098962" to="-179426984#2" type='vehicle_distribution'/>
    <trip id="route_23_86" depart="3096.00" from="-24906673#5" to="-430023368#13" type='vehicle_distribution'/>
    <trip id="route_23_87" depart="3132.00" from="94362562#2" to="23874110#1" type='vehicle_distribution'/>
    <trip id="route_23_88" depart="3168.00" from="-129624596" to="24362805#0" type='vehicle_distribution'/>
    <trip id="route_23_89" depart="3204.00" from="-24906899#1" to="24906154#0" type='vehicle_distribution'/>
    <trip id="route_23_90" depart="3240.00" from="186092023#1" to="-24906187#14" type='vehicle_distribution'/>
    <trip id="route_23_91" depart="3276.00" from="130444908#0" to="-1147407326#5" type='vehicle_distribution'/>
    <trip id="route_23_92" depart="3312.00" from="-24906825" to="24906776#0" type='vehicle_distribution'/>
    <trip id="route_23_93" depart="3348.00" from="24906833#0" to="-24906187#14" type='vehicle_distribution'/>
    <trip id="route_23_94" depart="3384.00" from="24905649#0" to="-48224475#2" type='vehicle_distribution'/>
    <trip id="route_23_95" depart="3420.00" from="-110751211#5" to="679732022" type='vehicle_distribution'/>
    <trip id="route_23_96" depart="3456.00" from="-110751211#5" to="-1078804611#0" type='vehicle_distribution'/>
    <trip id="route_23_97" depart="3492.00" from="-30711450" to="-27939673#4" type='vehicle_distribution'/>
    <trip id="route_23_98" depart="3528.00" from="-32545218#3" to="27997927#1" type='vehicle_distribution'/>
    <trip id="route_23_99" depart="3564.00" from="32550351#0" to="E6" type='vehicle_distribution'/>
    <trip id="route_23_100" depart="3600.00" from="552173990" to="-24905855#11" type='vehicle_distribution'/>
    <trip id="route_23_101" depart="3636.00" from="-902209595#1" to="-24906154#12" type='vehicle_distribution'/>
    <trip id="route_23_102" depart="3672.00" from="-24905637#3" to="-30740764#2" type='vehicle_distribution'/>
    <trip id="route_23_103" depart="3708.00" from="30740764#0" to="-126133736#2" type='vehicle_distribution'/>
    <trip id="route_23_104" depart="3744.00" from="-24906201#4" to="29590610#3" type='vehicle_distribution'/>
    <trip id="route_23_105" depart="3780.00" from="-24906774#5" to="-27997927#0" type='vehicle_distribution'/>
    <trip id="route_23_106" depart="3816.00" from="24906754#0" to="110751243" type='vehicle_distribution'/>
    <trip id="route_23_107" depart="3852.00" from="1227555805#0" to="-102545048" type='vehicle_distribution'/>
    <trip id="route_23_108" depart="3888.00" from="-110751197#1" to="1147407326#0" type='vehicle_distribution'/>
    <trip id="route_23_109" depart="3924.00" from="-32545425" to="-48224475#5" type='vehicle_distribution'/>
    <trip id="route_23_110" depart="3960.00" from="430021678" to="27997918#1" type='vehicle_distribution'/>
    <trip id="route_23_111" depart="3996.00" from="555798702#9" to="-30712581#0" type='vehicle_distribution'/>
    <trip id="route_23_112" depart="4032.00" from="24906224#15" to="48224475#0" type='vehicle_distribution'/>
    <trip id="route_23_113" depart="4068.00" from="24906747#3" to="-130444908#2" type='vehicle_distribution'/>
    <trip id="route_23_114" depart="4104.00" from="27742488#0" to="547751980#0" type='vehicle_distribution'/>
    <trip id="route_23_115" depart="4140.00" from="110751249#2" to="-179422415#0" type='vehicle_distribution'/>
    <trip id="route_23_116" depart="4176.00" from="430021684#0" to="-102545048" type='vehicle_distribution'/>
    <trip id="route_23_117" depart="4212.00" from="-430021676#4" to="24905637#8" type='vehicle_distribution'/>
    <trip id="route_23_118" depart="4248.00" from="-24906899#1" to="-24905514#5" type='vehicle_distribution'/>
    <trip id="route_23_119" depart="4284.00" from="E7" to="-430021697#4" type='vehicle_distribution'/>
    <trip id="route_23_120" depart="4320.00" from="110751249#0" to="-130450823#8" type='vehicle_distribution'/>
    <trip id="route_23_121" depart="4356.00" from="-48224475#2" to="-24905645#1" type='vehicle_distribution'/>
    <trip id="route_23_122" depart="4392.00" from="35414484#0" to="130193814" type='vehicle_distribution'/>
    <trip id="route_23_123" depart="4428.00" from="48224475#4" to="15802676-AddedOffRampEdge" type='vehicle_distribution'/>
    <trip id="route_23_124" depart="4464.00" from="24905637#4" to="48224475#5" type='vehicle_distribution'/>
    <trip id="route_23_125" depart="4500.00" from="129704182#0" to="-413742244" type='vehicle_distribution'/>
    <trip id="route_23_126" depart="4536.00" from="-24906770#11" to="-413978789" type='vehicle_distribution'/>
    <trip id="route_23_127" depart="4572.00" from="29210243#4" to="30740764#3" type='vehicle_distribution'/>
    <trip id="route_23_128" depart="4608.00" from="94361603" to="-1231699233" type='vehicle_distribution'/>
    <trip id="route_23_129" depart="4644.00" from="-37588381#9" to="-24906201#4" type='vehicle_distribution'/>
    <trip id="route_23_130" depart="4680.00" from="-547751980#1" to="131821574#0" type='vehicle_distribution'/>
    <trip id="route_23_131" depart="4716.00" from="35414484#0" to="-130000191#1" type='vehicle_distribution'/>
    <trip id="route_23_132" depart="4752.00" from="-24906224#14" to="-27742409#0" type='vehicle_distribution'/>
    <trip id="route_23_133" depart="4788.00" from="-24905637#7" to="138704835" type='vehicle_distribution'/>
    <trip id="route_23_134" depart="4824.00" from="27939609#0" to="-24905855#8" type='vehicle_distribution'/>
    <trip id="route_23_135" depart="4860.00" from="-179422415#0" to="-413978808#1" type='vehicle_distribution'/>
    <trip id="route_23_136" depart="4896.00" from="-553571574#3" to="29569651" type='vehicle_distribution'/>
    <trip id="route_23_137" depart="4932.00" from="430021679" to="29590610#3" type='vehicle_distribution'/>
    <trip id="route_23_138" depart="4968.00" from="4364459" to="-24906485#3" type='vehicle_distribution'/>
    <trip id="route_23_139" depart="5004.00" from="-32550351#1" to="-24905650#13" type='vehicle_distribution'/>
    <trip id="route_23_140" depart="5040.00" from="-27997927#0" to="179422419#0" type='vehicle_distribution'/>
    <trip id="route_23_141" depart="5076.00" from="15802668" to="-179426987#0" type='vehicle_distribution'/>
    <trip id="route_23_142" depart="5112.00" from="117392581#7" to="-32545216#5" type='vehicle_distribution'/>
    <trip id="route_23_143" depart="5148.00" from="-94362565" to="24906920#7" type='vehicle_distribution'/>
    <trip id="route_23_144" depart="5184.00" from="-27635426#4" to="-117392581#5" type='vehicle_distribution'/>
    <trip id="route_23_145" depart="5220.00" from="29589786#0" to="26467348" type='vehicle_distribution'/>
    <trip id="route_23_146" depart="5256.00" from="-1227577250#1" to="430021675#10" type='vehicle_distribution'/>
    <trip id="route_23_147" depart="5292.00" from="186092007" to="-555798702#3" type='vehicle_distribution'/>
    <trip id="route_23_148" depart="5328.00" from="316235034#0" to="552173990" type='vehicle_distribution'/>
    <trip id="route_23_149" depart="5364.00" from="-431436413" to="-24906823#2" type='vehicle_distribution'/>
    <trip id="route_23_150" depart="5400.00" from="-24906773#3" to="1227607451" type='vehicle_distribution'/>
    <trip id="route_23_151" depart="5436.00" from="37588383" to="555798702#0" type='vehicle_distribution'/>
    <trip id="route_23_152" depart="5472.00" from="30740764#0" to="-130911743#4" type='vehicle_distribution'/>
    <trip id="route_23_153" depart="5508.00" from="-24906704#4" to="-110751220#3" type='vehicle_distribution'/>
    <trip id="route_23_154" depart="5544.00" from="110751249#5" to="-179422419#4" type='vehicle_distribution'/>
    <trip id="route_23_155" depart="5580.00" from="-131349686#1" to="27635426#6" type='vehicle_distribution'/>
    <trip id="route_23_156" depart="5616.00" from="129624596" to="-29590610#7" type='vehicle_distribution'/>
    <trip id="route_23_157" depart="5652.00" from="-24905855#13" to="27939673#5" type='vehicle_distribution'/>
    <trip id="route_23_158" depart="5688.00" from="-24905855#8" to="413742252#0" type='vehicle_distribution'/>
    <trip id="route_23_159" depart="5724.00" from="4489560#0" to="-48224475#0" type='vehicle_distribution'/>
    <trip id="route_23_160" depart="5760.00" from="-24905855#12" to="-27742409#0" type='vehicle_distribution'/>
    <trip id="route_23_161" depart="5796.00" from="430021683#7" to="547748731#0" type='vehicle_distribution'/>
    <trip id="route_23_162" depart="5832.00" from="-24906210#15" to="-555252199#1" type='vehicle_distribution'/>
    <trip id="route_23_163" depart="5868.00" from="-130444908#4" to="-431436790#1" type='vehicle_distribution'/>
    <trip id="route_23_164" depart="5904.00" from="-32545426" to="24906920#7" type='vehicle_distribution'/>
    <trip id="route_23_165" depart="5940.00" from="-130098948" to="-24906785#25" type='vehicle_distribution'/>
    <trip id="route_23_166" depart="5976.00" from="-117392576#0" to="-24906785#22" type='vehicle_distribution'/>
    <trip id="route_23_167" depart="6012.00" from="-129704182#2" to="-430021676#8" type='vehicle_distribution'/>
    <trip id="route_23_168" depart="6048.00" from="24906723#0" to="130401743" type='vehicle_distribution'/>
    <trip id="route_23_169" depart="6084.00" from="431436790#0" to="110751211#0" type='vehicle_distribution'/>
    <trip id="route_23_170" depart="6120.00" from="-24906894#8" to="186092520" type='vehicle_distribution'/>
    <trip id="route_23_171" depart="6156.00" from="30713061" to="-430021679" type='vehicle_distribution'/>
    <trip id="route_23_172" depart="6192.00" from="-316235033#1" to="24905855#2" type='vehicle_distribution'/>
    <trip id="route_23_173" depart="6228.00" from="902209595#0" to="-102545041" type='vehicle_distribution'/>
    <trip id="route_23_174" depart="6264.00" from="-374119886" to="430021675#1" type='vehicle_distribution'/>
    <trip id="route_23_175" depart="6300.00" from="-27635432#1" to="130450825#6" type='vehicle_distribution'/>
    <trip id="route_23_176" depart="6336.00" from="1078804611#0" to="27635426#6" type='vehicle_distribution'/>
    <trip id="route_23_177" depart="6372.00" from="48224475#0" to="24905650#0" type='vehicle_distribution'/>
    <trip id="route_23_178" depart="6408.00" from="-110751249#1" to="-413978793" type='vehicle_distribution'/>
    <trip id="route_23_179" depart="6444.00" from="-27635432#2" to="-129625068" type='vehicle_distribution'/>
    <trip id="route_23_180" depart="6480.00" from="110751194#0" to="430021690#0" type='vehicle_distribution'/>
    <trip id="route_23_181" depart="6516.00" from="413742251#0" to="-24906154#12" type='vehicle_distribution'/>
    <trip id="route_23_182" depart="6552.00" from="-24905855#1" to="-546138342#2" type='vehicle_distribution'/>
    <trip id="route_23_183" depart="6588.00" from="-27997917#2" to="32545426" type='vehicle_distribution'/>
    <trip id="route_23_184" depart="6624.00" from="1218689452#1" to="-26467348" type='vehicle_distribution'/>
    <trip id="route_23_185" depart="6660.00" from="-23874110#0" to="24362808#0" type='vehicle_distribution'/>
    <trip id="route_23_186" depart="6696.00" from="27737064" to="-117392581#10" type='vehicle_distribution'/>
    <trip id="route_23_187" depart="6732.00" from="26467249" to="27635432#0" type='vehicle_distribution'/>
    <trip id="route_23_188" depart="6768.00" from="1016632177#0" to="-1078804611#3" type='vehicle_distribution'/>
    <trip id="route_23_189" depart="6804.00" from="32545426" to="130100032#0" type='vehicle_distribution'/>
    <trip id="route_23_190" depart="6840.00" from="179422415#0" to="-130000185#3" type='vehicle_distribution'/>
    <trip id="route_23_191" depart="6876.00" from="-30740764#2" to="24906717#0" type='vehicle_distribution'/>
    <trip id="route_23_192" depart="6912.00" from="67263975#0" to="179422415#1" type='vehicle_distribution'/>
    <trip id="route_23_193" depart="6948.00" from="-29210243#5" to="-24905535" type='vehicle_distribution'/>
    <trip id="route_23_194" depart="6984.00" from="29583790#0" to="24906802#0" type='vehicle_distribution'/>
    <trip id="route_23_195" depart="7020.00" from="-131730417#5" to="24906744#0" type='vehicle_distribution'/>
    <trip id="route_23_196" depart="7056.00" from="-27635432#2" to="430021679" type='vehicle_distribution'/>
    <trip id="route_23_197" depart="7092.00" from="-123136539" to="130895563" type='vehicle_distribution'/>
    <trip id="route_23_198" depart="7128.00" from="-430021680" to="27997927#0" type='vehicle_distribution'/>
    <trip id="route_23_199" depart="7164.00" from="110751199" to="-27018811" type='vehicle_distribution'/>
    <trip id="route_23_200" depart="7200.00" from="-30712581#2" to="-555798702#7" type='vehicle_distribution'/>
    <trip id="route_23_201" depart="7236.00" from="24906667#6" to="186092007" type='vehicle_distribution'/>
    <trip id="route_23_202" depart="7272.00" from="35414484#1" to="-48224475#2" type='vehicle_distribution'/>
    <trip id="route_23_203" depart="7308.00" from="94361603" to="94362565" type='vehicle_distribution'/>
    <trip id="route_23_204" depart="7344.00" from="24906754#0" to="-130098962" type='vehicle_distribution'/>
    <trip id="route_23_205" depart="7380.00" from="-27742409#0" to="110751197#2" type='vehicle_distribution'/>
    <trip id="route_23_206" depart="7416.00" from="-32550351#1" to="-110744622#3" type='vehicle_distribution'/>
    <trip id="route_23_207" depart="7452.00" from="110751219" to="-32550351#1" type='vehicle_distribution'/>
    <trip id="route_23_208" depart="7488.00" from="-27742409#0" to="-24905649#12" type='vehicle_distribution'/>
    <trip id="route_23_209" depart="7524.00" from="24906770#4" to="552173990" type='vehicle_distribution'/>
    <trip id="route_23_210" depart="7560.00" from="35414484#0" to="-430021679" type='vehicle_distribution'/>
    <trip id="route_23_211" depart="7596.00" from="-27997927#1" to="55497378#0" type='vehicle_distribution'/>
    <trip id="route_23_212" depart="7632.00" from="-24906187#14" to="179426988" type='vehicle_distribution'/>
    <trip id="route_23_213" depart="7668.00" from="-1227555805#1" to="-24906224#14" type='vehicle_distribution'/>
    <trip id="route_23_214" depart="7704.00" from="27997917#0" to="24906178#0" type='vehicle_distribution'/>
    <trip id="route_23_215" depart="7740.00" from="110751194#0" to="102545039" type='vehicle_distribution'/>
    <trip id="route_23_216" depart="7776.00" from="179422422#0" to="-552172254" type='vehicle_distribution'/>
    <trip id="route_23_217" depart="7812.00" from="-110751228#1" to="94362565" type='vehicle_distribution'/>
    <trip id="route_23_218" depart="7848.00" from="102545031" to="37588382#0" type='vehicle_distribution'/>
    <trip id="route_23_219" depart="7884.00" from="129704182#0" to="-24906170#16" type='vehicle_distribution'/>
    <trip id="route_23_220" depart="7920.00" from="24906187#7" to="-24906924#3" type='vehicle_distribution'/>
    <trip id="route_23_221" depart="7956.00" from="24906920#7" to="30710769#0" type='vehicle_distribution'/>
    <trip id="route_23_222" depart="7992.00" from="130098958" to="-29583768#0" type='vehicle_distribution'/>
    <trip id="route_23_223" depart="8028.00" from="1024921733#0" to="-23874110#0" type='vehicle_distribution'/>
    <trip id="route_23_224" depart="8064.00" from="-24905649#12" to="-48224475#4" type='vehicle_distribution'/>
    <trip id="route_23_225" depart="8100.00" from="130193884#0" to="32550351#0" type='vehicle_distribution'/>
    <trip id="route_23_226" depart="8136.00" from="27939612#0" to="24905855#9" type='vehicle_distribution'/>
    <trip id="route_23_227" depart="8172.00" from="-24906224#14" to="-552172254" type='vehicle_distribution'/>
    <trip id="route_23_228" depart="8208.00" from="-94361603" to="30711449" type='vehicle_distribution'/>
    <trip id="route_23_229" depart="8244.00" from="24906833#0" to="-413978808#1" type='vehicle_distribution'/>
    <trip id="route_23_230" depart="8280.00" from="-130098948" to="47370209" type='vehicle_distribution'/>
    <trip id="route_23_231" depart="8316.00" from="179422419#0" to="27742412" type='vehicle_distribution'/>
    <trip id="route_23_232" depart="8352.00" from="24906753#0" to="110751199" type='vehicle_distribution'/>
    <trip id="route_23_233" depart="8388.00" from="32545425" to="117392583#0" type='vehicle_distribution'/>
    <trip id="route_23_234" depart="8424.00" from="27742488#0" to="27737064" type='vehicle_distribution'/>
    <trip id="route_23_235" depart="8460.00" from="-186092007" to="-24906922#1" type='vehicle_distribution'/>
    <trip id="route_23_236" depart="8496.00" from="-24906224#14" to="27742409#1" type='vehicle_distribution'/>
    <trip id="route_23_237" depart="8532.00" from="1193796115#0" to="-26467348" type='vehicle_distribution'/>
    <trip id="route_23_238" depart="8568.00" from="-29589786#5" to="-24905644#11" type='vehicle_distribution'/>
    <trip id="route_23_239" depart="8604.00" from="-430021684#5" to="1197549801" type='vehicle_distribution'/>
    <trip id="route_23_240" depart="8640.00" from="29583726#0" to="-24906894#4" type='vehicle_distribution'/>
    <trip id="route_23_241" depart="8676.00" from="-430021675#7" to="-27939673#4" type='vehicle_distribution'/>
    <trip id="route_23_242" depart="8712.00" from="-1218689453#1" to="24906785#3" type='vehicle_distribution'/>
    <trip id="route_23_243" depart="8748.00" from="179426987#1" to="-24906924#3" type='vehicle_distribution'/>
    <trip id="route_23_244" depart="8784.00" from="-552173990" to="-24906210#15" type='vehicle_distribution'/>
    <trip id="route_23_245" depart="8820.00" from="130895563" to="24362805#0" type='vehicle_distribution'/>
    <trip id="route_23_246" depart="8856.00" from="-117392580#3" to="-24906791#7" type='vehicle_distribution'/>
    <trip id="route_23_247" depart="8892.00" from="-117392581#6" to="32545426" type='vehicle_distribution'/>
    <trip id="route_23_248" depart="8928.00" from="431436419#14" to="-374119886" type='vehicle_distribution'/>
    <trip id="route_23_249" depart="8964.00" from="-35414407#4" to="-430023368#13" type='vehicle_distribution'/>
    <trip id="route_23_250" depart="9000.00" from="179422422#0" to="94362565" type='vehicle_distribution'/>
    <trip id="route_23_251" depart="9036.00" from="29590610#3" to="-1231699233" type='vehicle_distribution'/>
    <trip id="route_23_252" depart="9072.00" from="430021695#0" to="1078804611#4" type='vehicle_distribution'/>
    <trip id="route_23_253" depart="9108.00" from="-48224475#2" to="413978804" type='vehicle_distribution'/>
    <trip id="route_23_254" depart="9144.00" from="15802689#0" to="-24906187#16" type='vehicle_distribution'/>
    <trip id="route_23_255" depart="9180.00" from="316235034#0" to="24905637#8" type='vehicle_distribution'/>
    <trip id="route_23_256" depart="9216.00" from="179426987#0" to="30711453" type='vehicle_distribution'/>
    <trip id="route_23_257" depart="9252.00" from="431436790#0" to="555798702#0" type='vehicle_distribution'/>
    <trip id="route_23_258" depart="9288.00" from="41402936" to="47370209" type='vehicle_distribution'/>
    <trip id="route_23_259" depart="9324.00" from="430021678" to="27742409#1" type='vehicle_distribution'/>
    <trip id="route_23_260" depart="9360.00" from="-413978793" to="245215746#0" type='vehicle_distribution'/>
    <trip id="route_23_261" depart="9396.00" from="-1218689453#0" to="1227553082#0" type='vehicle_distribution'/>
    <trip id="route_23_262" depart="9432.00" from="-37588383" to="24905644#0" type='vehicle_distribution'/>