<?xml version="1.0" encoding="UTF-8"?>

<!-- generated on 2023-12-24 13:48:10 by Eclipse SUMO netedit Version 1.19.0
-->

<additional xmlns:xsi="http://www.w3.org/2001/XMLSchema-instance" xsi:noNamespaceSchemaLocation="http://sumo.dlr.de/xsd/additional_file.xsd">
    <!-- StoppingPlaces -->
    <chargingStation id="cs_0" lane="E7_0" startPos="8.89" endPos="38.89" power="748900000.00" efficiency="1.00" chargeType="fuel"/>
    <chargingStation id="cs_1" lane="E7_1" startPos="8.89" endPos="38.89" power="748900000.00" efficiency="1.00" chargeType="fuel"/>
    <chargingStation id="cs_2" lane="E7_2" startPos="8.89" endPos="38.89" power="748900000.00" efficiency="1.00" chargeType="fuel"/>
</additional>
